<?xml version='1.0' encoding='UTF-8'?>
<nodes xmlns:xsi="http://www.w3.org/2001/XMLSchema-instance" version="0.27" xsi:noNamespaceSchemaLocation="http://sumo.dlr.de/xsd/edges_file.xsd"><node avg_slowdown_ratio="0.999280057598" id="node_10x10" junction="True" old_x="1000.0" old_y="1000.0" type="right_before_left" weight_num="4.0" weight_sum="3.99712023039" x="1000.0" y="1000.0" />
    <node avg_slowdown_ratio="0.0" id="node_00x00" junction="True" old_x="0.0" old_y="0.0" type="right_before_left" weight_num="2.0" weight_sum="0.0" x="0.0" y="0.0" />
    <node avg_slowdown_ratio="0.0" id="node_00x01" junction="True" old_x="0.0" old_y="100.0" type="right_before_left" weight_num="3.0" weight_sum="0.0" x="0.0" y="100.0" />
    <node avg_slowdown_ratio="0.0" id="node_00x02" junction="True" old_x="0.0" old_y="200.0" type="right_before_left" weight_num="3.0" weight_sum="0.0" x="0.0" y="200.0" />
    <node avg_slowdown_ratio="0.0" id="node_00x03" junction="True" old_x="0.0" old_y="300.0" type="right_before_left" weight_num="3.0" weight_sum="0.0" x="0.0" y="300.0" />
    <node avg_slowdown_ratio="0.0" id="node_00x04" junction="True" old_x="0.0" old_y="400.0" type="right_before_left" weight_num="3.0" weight_sum="0.0" x="0.0" y="400.0" />
    <node avg_slowdown_ratio="0.0" id="node_00x05" junction="True" old_x="0.0" old_y="500.0" type="right_before_left" weight_num="3.0" weight_sum="0.0" x="0.0" y="500.0" />
    <node avg_slowdown_ratio="0.0" id="node_00x06" junction="True" old_x="0.0" old_y="600.0" type="right_before_left" weight_num="3.0" weight_sum="0.0" x="0.0" y="600.0" />
    <node avg_slowdown_ratio="0.0" id="node_00x07" junction="True" old_x="0.0" old_y="700.0" type="right_before_left" weight_num="3.0" weight_sum="0.0" x="0.0" y="700.0" />
    <node avg_slowdown_ratio="0.0" id="node_00x08" junction="True" old_x="0.0" old_y="800.0" type="right_before_left" weight_num="3.0" weight_sum="0.0" x="0.0" y="800.0" />
    <node avg_slowdown_ratio="0.0" id="node_00x09" junction="True" old_x="0.0" old_y="900.0" type="right_before_left" weight_num="3.0" weight_sum="0.0" x="0.0" y="900.0" />
    <node avg_slowdown_ratio="0.0" id="node_00x10" junction="True" old_x="0.0" old_y="1000.0" type="right_before_left" weight_num="3.0" weight_sum="0.0" x="0.0" y="1000.0" />
    <node avg_slowdown_ratio="0.0" id="node_00x11" junction="True" old_x="0.0" old_y="1100.0" type="right_before_left" weight_num="3.0" weight_sum="0.0" x="0.0" y="1100.0" />
    <node avg_slowdown_ratio="0.0" id="node_00x12" junction="True" old_x="0.0" old_y="1200.0" type="right_before_left" weight_num="3.0" weight_sum="0.0" x="0.0" y="1200.0" />
    <node avg_slowdown_ratio="0.0" id="node_00x13" junction="True" old_x="0.0" old_y="1300.0" type="right_before_left" weight_num="3.0" weight_sum="0.0" x="0.0" y="1300.0" />
    <node avg_slowdown_ratio="0.0" id="node_00x14" junction="True" old_x="0.0" old_y="1400.0" type="right_before_left" weight_num="3.0" weight_sum="0.0" x="0.0" y="1400.0" />
    <node avg_slowdown_ratio="0.0" id="node_00x15" junction="True" old_x="0.0" old_y="1500.0" type="right_before_left" weight_num="3.0" weight_sum="0.0" x="0.0" y="1500.0" />
    <node avg_slowdown_ratio="0.0" id="node_00x16" junction="True" old_x="0.0" old_y="1600.0" type="right_before_left" weight_num="3.0" weight_sum="0.0" x="0.0" y="1600.0" />
    <node avg_slowdown_ratio="0.0" id="node_00x17" junction="True" old_x="0.0" old_y="1700.0" type="right_before_left" weight_num="3.0" weight_sum="0.0" x="0.0" y="1700.0" />
    <node avg_slowdown_ratio="0.0" id="node_00x18" junction="True" old_x="0.0" old_y="1800.0" type="right_before_left" weight_num="3.0" weight_sum="0.0" x="0.0" y="1800.0" />
    <node avg_slowdown_ratio="0.0" id="node_00x19" junction="True" old_x="0.0" old_y="1900.0" type="right_before_left" weight_num="3.0" weight_sum="0.0" x="0.0" y="1900.0" />
    <node avg_slowdown_ratio="0.0" id="node_00x20" junction="True" old_x="0.0" old_y="2000.0" type="right_before_left" weight_num="2.0" weight_sum="0.0" x="0.0" y="2000.0" />
    <node avg_slowdown_ratio="0.0" id="node_01x00" junction="True" old_x="100.0" old_y="0.0" type="right_before_left" weight_num="3.0" weight_sum="0.0" x="100.0" y="0.0" />
    <node avg_slowdown_ratio="0.0" id="node_01x01" junction="True" old_x="100.0" old_y="100.0" type="right_before_left" weight_num="4.0" weight_sum="0.0" x="100.0" y="100.0" />
    <node avg_slowdown_ratio="0.0" id="node_01x02" junction="True" old_x="100.0" old_y="200.0" type="right_before_left" weight_num="4.0" weight_sum="0.0" x="100.0" y="200.0" />
    <node avg_slowdown_ratio="0.0" id="node_01x03" junction="True" old_x="100.0" old_y="300.0" type="right_before_left" weight_num="4.0" weight_sum="0.0" x="100.0" y="300.0" />
    <node avg_slowdown_ratio="0.0" id="node_01x04" junction="True" old_x="100.0" old_y="400.0" type="right_before_left" weight_num="4.0" weight_sum="0.0" x="100.0" y="400.0" />
    <node avg_slowdown_ratio="0.0" id="node_01x05" junction="True" old_x="100.0" old_y="500.0" type="right_before_left" weight_num="4.0" weight_sum="0.0" x="100.0" y="500.0" />
    <node avg_slowdown_ratio="0.0" id="node_01x06" junction="True" old_x="100.0" old_y="600.0" type="right_before_left" weight_num="4.0" weight_sum="0.0" x="100.0" y="600.0" />
    <node avg_slowdown_ratio="0.0" id="node_01x07" junction="True" old_x="100.0" old_y="700.0" type="right_before_left" weight_num="4.0" weight_sum="0.0" x="100.0" y="700.0" />
    <node avg_slowdown_ratio="0.0" id="node_01x08" junction="True" old_x="100.0" old_y="800.0" type="right_before_left" weight_num="4.0" weight_sum="0.0" x="100.0" y="800.0" />
    <node avg_slowdown_ratio="0.0" id="node_01x09" junction="True" old_x="100.0" old_y="900.0" type="right_before_left" weight_num="4.0" weight_sum="0.0" x="100.0" y="900.0" />
    <node avg_slowdown_ratio="0.0" id="node_01x10" junction="True" old_x="100.0" old_y="1000.0" type="right_before_left" weight_num="4.0" weight_sum="0.0" x="100.0" y="1000.0" />
    <node avg_slowdown_ratio="0.0" id="node_01x11" junction="True" old_x="100.0" old_y="1100.0" type="right_before_left" weight_num="4.0" weight_sum="0.0" x="100.0" y="1100.0" />
    <node avg_slowdown_ratio="0.0" id="node_01x12" junction="True" old_x="100.0" old_y="1200.0" type="right_before_left" weight_num="4.0" weight_sum="0.0" x="100.0" y="1200.0" />
    <node avg_slowdown_ratio="0.0" id="node_01x13" junction="True" old_x="100.0" old_y="1300.0" type="right_before_left" weight_num="4.0" weight_sum="0.0" x="100.0" y="1300.0" />
    <node avg_slowdown_ratio="0.0" id="node_01x14" junction="True" old_x="100.0" old_y="1400.0" type="right_before_left" weight_num="4.0" weight_sum="0.0" x="100.0" y="1400.0" />
    <node avg_slowdown_ratio="0.0" id="node_01x15" junction="True" old_x="100.0" old_y="1500.0" type="right_before_left" weight_num="4.0" weight_sum="0.0" x="100.0" y="1500.0" />
    <node avg_slowdown_ratio="0.0" id="node_01x16" junction="True" old_x="100.0" old_y="1600.0" type="right_before_left" weight_num="4.0" weight_sum="0.0" x="100.0" y="1600.0" />
    <node avg_slowdown_ratio="0.0" id="node_01x17" junction="True" old_x="100.0" old_y="1700.0" type="right_before_left" weight_num="4.0" weight_sum="0.0" x="100.0" y="1700.0" />
    <node avg_slowdown_ratio="0.0" id="node_01x18" junction="True" old_x="100.0" old_y="1800.0" type="right_before_left" weight_num="4.0" weight_sum="0.0" x="100.0" y="1800.0" />
    <node avg_slowdown_ratio="0.0" id="node_01x19" junction="True" old_x="100.0" old_y="1900.0" type="right_before_left" weight_num="4.0" weight_sum="0.0" x="100.0" y="1900.0" />
    <node avg_slowdown_ratio="0.0" id="node_01x20" junction="True" old_x="100.0" old_y="2000.0" type="right_before_left" weight_num="3.0" weight_sum="0.0" x="100.0" y="2000.0" />
    <node avg_slowdown_ratio="0.0" id="node_02x00" junction="True" old_x="200.0" old_y="0.0" type="right_before_left" weight_num="3.0" weight_sum="0.0" x="200.0" y="0.0" />
    <node avg_slowdown_ratio="0.0" id="node_02x01" junction="True" old_x="200.0" old_y="100.0" type="right_before_left" weight_num="4.0" weight_sum="0.0" x="200.0" y="100.0" />
    <node avg_slowdown_ratio="0.0" id="node_02x02" junction="True" old_x="200.0" old_y="200.0" type="right_before_left" weight_num="4.0" weight_sum="0.0" x="200.0" y="200.0" />
    <node avg_slowdown_ratio="0.0" id="node_02x03" junction="True" old_x="200.0" old_y="300.0" type="right_before_left" weight_num="4.0" weight_sum="0.0" x="200.0" y="300.0" />
    <node avg_slowdown_ratio="0.0" id="node_02x04" junction="True" old_x="200.0" old_y="400.0" type="right_before_left" weight_num="4.0" weight_sum="0.0" x="200.0" y="400.0" />
    <node avg_slowdown_ratio="0.0" id="node_02x05" junction="True" old_x="200.0" old_y="500.0" type="right_before_left" weight_num="4.0" weight_sum="0.0" x="200.0" y="500.0" />
    <node avg_slowdown_ratio="0.0" id="node_02x06" junction="True" old_x="200.0" old_y="600.0" type="right_before_left" weight_num="4.0" weight_sum="0.0" x="200.0" y="600.0" />
    <node avg_slowdown_ratio="0.0" id="node_02x07" junction="True" old_x="200.0" old_y="700.0" type="right_before_left" weight_num="4.0" weight_sum="0.0" x="200.0" y="700.0" />
    <node avg_slowdown_ratio="0.0" id="node_02x08" junction="True" old_x="200.0" old_y="800.0" type="right_before_left" weight_num="4.0" weight_sum="0.0" x="200.0" y="800.0" />
    <node avg_slowdown_ratio="0.0" id="node_02x09" junction="True" old_x="200.0" old_y="900.0" type="right_before_left" weight_num="4.0" weight_sum="0.0" x="200.0" y="900.0" />
    <node avg_slowdown_ratio="0.0" id="node_02x10" junction="True" old_x="200.0" old_y="1000.0" type="right_before_left" weight_num="4.0" weight_sum="0.0" x="200.0" y="1000.0" />
    <node avg_slowdown_ratio="0.0" id="node_02x11" junction="True" old_x="200.0" old_y="1100.0" type="right_before_left" weight_num="4.0" weight_sum="0.0" x="200.0" y="1100.0" />
    <node avg_slowdown_ratio="0.0" id="node_02x12" junction="True" old_x="200.0" old_y="1200.0" type="right_before_left" weight_num="4.0" weight_sum="0.0" x="200.0" y="1200.0" />
    <node avg_slowdown_ratio="0.0" id="node_02x13" junction="True" old_x="200.0" old_y="1300.0" type="right_before_left" weight_num="4.0" weight_sum="0.0" x="200.0" y="1300.0" />
    <node avg_slowdown_ratio="0.0" id="node_02x14" junction="True" old_x="200.0" old_y="1400.0" type="right_before_left" weight_num="4.0" weight_sum="0.0" x="200.0" y="1400.0" />
    <node avg_slowdown_ratio="0.0" id="node_02x15" junction="True" old_x="200.0" old_y="1500.0" type="right_before_left" weight_num="4.0" weight_sum="0.0" x="200.0" y="1500.0" />
    <node avg_slowdown_ratio="0.0" id="node_02x16" junction="True" old_x="200.0" old_y="1600.0" type="right_before_left" weight_num="4.0" weight_sum="0.0" x="200.0" y="1600.0" />
    <node avg_slowdown_ratio="0.0" id="node_02x17" junction="True" old_x="200.0" old_y="1700.0" type="right_before_left" weight_num="4.0" weight_sum="0.0" x="200.0" y="1700.0" />
    <node avg_slowdown_ratio="0.0" id="node_02x18" junction="True" old_x="200.0" old_y="1800.0" type="right_before_left" weight_num="4.0" weight_sum="0.0" x="200.0" y="1800.0" />
    <node avg_slowdown_ratio="0.0" id="node_02x19" junction="True" old_x="200.0" old_y="1900.0" type="right_before_left" weight_num="4.0" weight_sum="0.0" x="200.0" y="1900.0" />
    <node avg_slowdown_ratio="0.0" id="node_02x20" junction="True" old_x="200.0" old_y="2000.0" type="right_before_left" weight_num="3.0" weight_sum="0.0" x="200.0" y="2000.0" />
    <node avg_slowdown_ratio="0.0" id="node_03x00" junction="True" old_x="300.0" old_y="0.0" type="right_before_left" weight_num="3.0" weight_sum="0.0" x="300.0" y="0.0" />
    <node avg_slowdown_ratio="0.0" id="node_03x01" junction="True" old_x="300.0" old_y="100.0" type="right_before_left" weight_num="4.0" weight_sum="0.0" x="300.0" y="100.0" />
    <node avg_slowdown_ratio="0.0" id="node_03x02" junction="True" old_x="300.0" old_y="200.0" type="right_before_left" weight_num="4.0" weight_sum="0.0" x="300.0" y="200.0" />
    <node avg_slowdown_ratio="0.0" id="node_03x03" junction="True" old_x="300.0" old_y="300.0" type="right_before_left" weight_num="4.0" weight_sum="0.0" x="300.0" y="300.0" />
    <node avg_slowdown_ratio="0.0" id="node_03x04" junction="True" old_x="300.0" old_y="400.0" type="right_before_left" weight_num="4.0" weight_sum="0.0" x="300.0" y="400.0" />
    <node avg_slowdown_ratio="0.0" id="node_03x05" junction="True" old_x="300.0" old_y="500.0" type="right_before_left" weight_num="4.0" weight_sum="0.0" x="300.0" y="500.0" />
    <node avg_slowdown_ratio="0.0" id="node_03x06" junction="True" old_x="300.0" old_y="600.0" type="right_before_left" weight_num="4.0" weight_sum="0.0" x="300.0" y="600.0" />
    <node avg_slowdown_ratio="0.0" id="node_03x07" junction="True" old_x="300.0" old_y="700.0" type="right_before_left" weight_num="4.0" weight_sum="0.0" x="300.0" y="700.0" />
    <node avg_slowdown_ratio="0.0" id="node_03x08" junction="True" old_x="300.0" old_y="800.0" type="right_before_left" weight_num="4.0" weight_sum="0.0" x="300.0" y="800.0" />
    <node avg_slowdown_ratio="0.0" id="node_03x09" junction="True" old_x="300.0" old_y="900.0" type="right_before_left" weight_num="4.0" weight_sum="0.0" x="300.0" y="900.0" />
    <node avg_slowdown_ratio="0.0" id="node_03x10" junction="True" old_x="300.0" old_y="1000.0" type="right_before_left" weight_num="4.0" weight_sum="0.0" x="300.0" y="1000.0" />
    <node avg_slowdown_ratio="0.0" id="node_03x11" junction="True" old_x="300.0" old_y="1100.0" type="right_before_left" weight_num="4.0" weight_sum="0.0" x="300.0" y="1100.0" />
    <node avg_slowdown_ratio="0.0" id="node_03x12" junction="True" old_x="300.0" old_y="1200.0" type="right_before_left" weight_num="4.0" weight_sum="0.0" x="300.0" y="1200.0" />
    <node avg_slowdown_ratio="0.0" id="node_03x13" junction="True" old_x="300.0" old_y="1300.0" type="right_before_left" weight_num="4.0" weight_sum="0.0" x="300.0" y="1300.0" />
    <node avg_slowdown_ratio="0.0" id="node_03x14" junction="True" old_x="300.0" old_y="1400.0" type="right_before_left" weight_num="4.0" weight_sum="0.0" x="300.0" y="1400.0" />
    <node avg_slowdown_ratio="0.0" id="node_03x15" junction="True" old_x="300.0" old_y="1500.0" type="right_before_left" weight_num="4.0" weight_sum="0.0" x="300.0" y="1500.0" />
    <node avg_slowdown_ratio="0.0" id="node_03x16" junction="True" old_x="300.0" old_y="1600.0" type="right_before_left" weight_num="4.0" weight_sum="0.0" x="300.0" y="1600.0" />
    <node avg_slowdown_ratio="0.0" id="node_03x17" junction="True" old_x="300.0" old_y="1700.0" type="right_before_left" weight_num="4.0" weight_sum="0.0" x="300.0" y="1700.0" />
    <node avg_slowdown_ratio="0.0" id="node_03x18" junction="True" old_x="300.0" old_y="1800.0" type="right_before_left" weight_num="4.0" weight_sum="0.0" x="300.0" y="1800.0" />
    <node avg_slowdown_ratio="0.0" id="node_03x19" junction="True" old_x="300.0" old_y="1900.0" type="right_before_left" weight_num="4.0" weight_sum="0.0" x="300.0" y="1900.0" />
    <node avg_slowdown_ratio="0.0" id="node_03x20" junction="True" old_x="300.0" old_y="2000.0" type="right_before_left" weight_num="3.0" weight_sum="0.0" x="300.0" y="2000.0" />
    <node avg_slowdown_ratio="0.0" id="node_04x00" junction="True" old_x="400.0" old_y="0.0" type="right_before_left" weight_num="3.0" weight_sum="0.0" x="400.0" y="0.0" />
    <node avg_slowdown_ratio="0.0" id="node_04x01" junction="True" old_x="400.0" old_y="100.0" type="right_before_left" weight_num="4.0" weight_sum="0.0" x="400.0" y="100.0" />
    <node avg_slowdown_ratio="0.0" id="node_04x02" junction="True" old_x="400.0" old_y="200.0" type="right_before_left" weight_num="4.0" weight_sum="0.0" x="400.0" y="200.0" />
    <node avg_slowdown_ratio="0.0" id="node_04x03" junction="True" old_x="400.0" old_y="300.0" type="right_before_left" weight_num="4.0" weight_sum="0.0" x="400.0" y="300.0" />
    <node avg_slowdown_ratio="0.0" id="node_04x04" junction="True" old_x="400.0" old_y="400.0" type="right_before_left" weight_num="4.0" weight_sum="0.0" x="400.0" y="400.0" />
    <node avg_slowdown_ratio="0.0" id="node_04x05" junction="True" old_x="400.0" old_y="500.0" type="right_before_left" weight_num="4.0" weight_sum="0.0" x="400.0" y="500.0" />
    <node avg_slowdown_ratio="0.0" id="node_04x06" junction="True" old_x="400.0" old_y="600.0" type="right_before_left" weight_num="4.0" weight_sum="0.0" x="400.0" y="600.0" />
    <node avg_slowdown_ratio="0.0" id="node_04x07" junction="True" old_x="400.0" old_y="700.0" type="right_before_left" weight_num="4.0" weight_sum="0.0" x="400.0" y="700.0" />
    <node avg_slowdown_ratio="0.0" id="node_04x08" junction="True" old_x="400.0" old_y="800.0" type="right_before_left" weight_num="4.0" weight_sum="0.0" x="351.855454731" x_displacement_sum="-48.1445452689" y="783.951818244" y_displacement_sum="-16.0481817563" />
    <node avg_slowdown_ratio="0.0" id="node_04x09" junction="True" old_x="400.0" old_y="900.0" type="right_before_left" weight_num="4.0" weight_sum="0.0" x="317.841104413" x_displacement_sum="-82.1588955869" y="886.306850736" y_displacement_sum="-13.6931492645" />
    <node avg_slowdown_ratio="0.0" id="node_04x10" junction="True" old_x="400.0" old_y="1000.0" type="right_before_left" weight_num="4.0" weight_sum="0.0" x="306.247809045" x_displacement_sum="-93.7521909549" y="1000.0" y_displacement_sum="0.0" />
    <node avg_slowdown_ratio="0.0" id="node_04x11" junction="True" old_x="400.0" old_y="1100.0" type="right_before_left" weight_num="4.0" weight_sum="0.0" x="317.841104413" x_displacement_sum="-82.1588955869" y="1113.69314926" y_displacement_sum="13.6931492645" />
    <node avg_slowdown_ratio="0.0" id="node_04x12" junction="True" old_x="400.0" old_y="1200.0" type="right_before_left" weight_num="4.0" weight_sum="0.0" x="351.855454731" x_displacement_sum="-48.1445452689" y="1216.04818176" y_displacement_sum="16.0481817563" />
    <node avg_slowdown_ratio="0.0" id="node_04x13" junction="True" old_x="400.0" old_y="1300.0" type="right_before_left" weight_num="4.0" weight_sum="0.0" x="400.0" y="1300.0" />
    <node avg_slowdown_ratio="0.0" id="node_04x14" junction="True" old_x="400.0" old_y="1400.0" type="right_before_left" weight_num="4.0" weight_sum="0.0" x="400.0" y="1400.0" />
    <node avg_slowdown_ratio="0.0" id="node_04x15" junction="True" old_x="400.0" old_y="1500.0" type="right_before_left" weight_num="4.0" weight_sum="0.0" x="400.0" y="1500.0" />
    <node avg_slowdown_ratio="0.0" id="node_04x16" junction="True" old_x="400.0" old_y="1600.0" type="right_before_left" weight_num="4.0" weight_sum="0.0" x="400.0" y="1600.0" />
    <node avg_slowdown_ratio="0.0" id="node_04x17" junction="True" old_x="400.0" old_y="1700.0" type="right_before_left" weight_num="4.0" weight_sum="0.0" x="400.0" y="1700.0" />
    <node avg_slowdown_ratio="0.0" id="node_04x18" junction="True" old_x="400.0" old_y="1800.0" type="right_before_left" weight_num="4.0" weight_sum="0.0" x="400.0" y="1800.0" />
    <node avg_slowdown_ratio="0.0" id="node_04x19" junction="True" old_x="400.0" old_y="1900.0" type="right_before_left" weight_num="4.0" weight_sum="0.0" x="400.0" y="1900.0" />
    <node avg_slowdown_ratio="0.0" id="node_04x20" junction="True" old_x="400.0" old_y="2000.0" type="right_before_left" weight_num="3.0" weight_sum="0.0" x="400.0" y="2000.0" />
    <node avg_slowdown_ratio="0.0" id="node_05x00" junction="True" old_x="500.0" old_y="0.0" type="right_before_left" weight_num="3.0" weight_sum="0.0" x="500.0" y="0.0" />
    <node avg_slowdown_ratio="0.0" id="node_05x01" junction="True" old_x="500.0" old_y="100.0" type="right_before_left" weight_num="4.0" weight_sum="0.0" x="500.0" y="100.0" />
    <node avg_slowdown_ratio="0.0" id="node_05x02" junction="True" old_x="500.0" old_y="200.0" type="right_before_left" weight_num="4.0" weight_sum="0.0" x="500.0" y="200.0" />
    <node avg_slowdown_ratio="0.0" id="node_05x03" junction="True" old_x="500.0" old_y="300.0" type="right_before_left" weight_num="4.0" weight_sum="0.0" x="500.0" y="300.0" />
    <node avg_slowdown_ratio="0.0" id="node_05x04" junction="True" old_x="500.0" old_y="400.0" type="right_before_left" weight_num="4.0" weight_sum="0.0" x="500.0" y="400.0" />
    <node avg_slowdown_ratio="0.0" id="node_05x05" junction="True" old_x="500.0" old_y="500.0" type="right_before_left" weight_num="4.0" weight_sum="0.0" x="500.0" y="500.0" />
    <node avg_slowdown_ratio="0.0" id="node_05x06" junction="True" old_x="500.0" old_y="600.0" type="right_before_left" weight_num="4.0" weight_sum="0.0" x="469.119340481" x_displacement_sum="-30.8806595194" y="575.295472385" y_displacement_sum="-24.7045276155" />
    <node avg_slowdown_ratio="0.0" id="node_05x07" junction="True" old_x="500.0" old_y="700.0" type="right_before_left" weight_num="4.0" weight_sum="0.0" x="402.222479639" x_displacement_sum="-97.7775203613" y="641.333487783" y_displacement_sum="-58.6665122168" />
    <node avg_slowdown_ratio="0.0" id="node_05x08" junction="True" old_x="500.0" old_y="800.0" type="right_before_left" weight_num="4.0" weight_sum="0.0" x="351.042253426" x_displacement_sum="-148.957746574" y="740.41690137" y_displacement_sum="-59.5830986297" />
    <node avg_slowdown_ratio="0.0" id="node_05x09" junction="True" old_x="500.0" old_y="900.0" type="right_before_left" weight_num="4.0" weight_sum="0.0" x="318.673261009" x_displacement_sum="-181.326738991" y="863.734652202" y_displacement_sum="-36.2653477982" />
    <node avg_slowdown_ratio="0.0" id="node_05x10" junction="True" old_x="500.0" old_y="1000.0" type="right_before_left" weight_num="4.0" weight_sum="0.0" x="307.524467125" x_displacement_sum="-192.475532875" y="1000.0" y_displacement_sum="0.0" />
    <node avg_slowdown_ratio="0.0" id="node_05x11" junction="True" old_x="500.0" old_y="1100.0" type="right_before_left" weight_num="4.0" weight_sum="0.0" x="318.673261009" x_displacement_sum="-181.326738991" y="1136.2653478" y_displacement_sum="36.2653477982" />
    <node avg_slowdown_ratio="0.0" id="node_05x12" junction="True" old_x="500.0" old_y="1200.0" type="right_before_left" weight_num="4.0" weight_sum="0.0" x="351.042253426" x_displacement_sum="-148.957746574" y="1259.58309863" y_displacement_sum="59.5830986297" />
    <node avg_slowdown_ratio="0.0" id="node_05x13" junction="True" old_x="500.0" old_y="1300.0" type="right_before_left" weight_num="4.0" weight_sum="0.0" x="402.222479639" x_displacement_sum="-97.7775203613" y="1358.66651222" y_displacement_sum="58.6665122168" />
    <node avg_slowdown_ratio="0.0" id="node_05x14" junction="True" old_x="500.0" old_y="1400.0" type="right_before_left" weight_num="4.0" weight_sum="0.0" x="469.119340481" x_displacement_sum="-30.8806595194" y="1424.70452762" y_displacement_sum="24.7045276155" />
    <node avg_slowdown_ratio="0.0" id="node_05x15" junction="True" old_x="500.0" old_y="1500.0" type="right_before_left" weight_num="4.0" weight_sum="0.0" x="500.0" y="1500.0" />
    <node avg_slowdown_ratio="0.0" id="node_05x16" junction="True" old_x="500.0" old_y="1600.0" type="right_before_left" weight_num="4.0" weight_sum="0.0" x="500.0" y="1600.0" />
    <node avg_slowdown_ratio="0.0" id="node_05x17" junction="True" old_x="500.0" old_y="1700.0" type="right_before_left" weight_num="4.0" weight_sum="0.0" x="500.0" y="1700.0" />
    <node avg_slowdown_ratio="0.0" id="node_05x18" junction="True" old_x="500.0" old_y="1800.0" type="right_before_left" weight_num="4.0" weight_sum="0.0" x="500.0" y="1800.0" />
    <node avg_slowdown_ratio="0.0" id="node_05x19" junction="True" old_x="500.0" old_y="1900.0" type="right_before_left" weight_num="4.0" weight_sum="0.0" x="500.0" y="1900.0" />
    <node avg_slowdown_ratio="0.0" id="node_05x20" junction="True" old_x="500.0" old_y="2000.0" type="right_before_left" weight_num="3.0" weight_sum="0.0" x="500.0" y="2000.0" />
    <node avg_slowdown_ratio="0.0" id="node_06x00" junction="True" old_x="600.0" old_y="0.0" type="right_before_left" weight_num="3.0" weight_sum="0.0" x="600.0" y="0.0" />
    <node avg_slowdown_ratio="0.0" id="node_06x01" junction="True" old_x="600.0" old_y="100.0" type="right_before_left" weight_num="4.0" weight_sum="0.0" x="600.0" y="100.0" />
    <node avg_slowdown_ratio="0.0" id="node_06x02" junction="True" old_x="600.0" old_y="200.0" type="right_before_left" weight_num="4.0" weight_sum="0.0" x="600.0" y="200.0" />
    <node avg_slowdown_ratio="0.0" id="node_06x03" junction="True" old_x="600.0" old_y="300.0" type="right_before_left" weight_num="4.0" weight_sum="0.0" x="600.0" y="300.0" />
    <node avg_slowdown_ratio="0.0" id="node_06x04" junction="True" old_x="600.0" old_y="400.0" type="right_before_left" weight_num="4.0" weight_sum="0.0" x="600.0" y="400.0" />
    <node avg_slowdown_ratio="0.0" id="node_06x05" junction="True" old_x="600.0" old_y="500.0" type="right_before_left" weight_num="4.0" weight_sum="0.0" x="575.295472385" x_displacement_sum="-24.7045276155" y="469.119340481" y_displacement_sum="-30.8806595194" />
    <node avg_slowdown_ratio="0.0" id="node_06x06" junction="True" old_x="600.0" old_y="600.0" type="right_before_left" weight_num="4.0" weight_sum="0.0" x="505.694395732" x_displacement_sum="-94.3056042675" y="505.694395732" y_displacement_sum="-94.3056042675" />
    <node avg_slowdown_ratio="0.0" id="node_06x07" junction="True" old_x="600.0" old_y="700.0" type="right_before_left" weight_num="4.0" weight_sum="0.0" x="446.0195737" x_displacement_sum="-153.9804263" y="584.514680275" y_displacement_sum="-115.485319725" />
    <node avg_slowdown_ratio="0.0" id="node_06x08" junction="True" old_x="600.0" old_y="800.0" type="right_before_left" weight_num="4.0" weight_sum="0.0" x="397.743160332" x_displacement_sum="-202.256839668" y="698.871580166" y_displacement_sum="-101.128419834" />
    <node avg_slowdown_ratio="0.0" id="node_06x09" junction="True" old_x="600.0" old_y="900.0" type="right_before_left" weight_num="4.0" weight_sum="0.0" x="362.477192248" x_displacement_sum="-237.522807752" y="840.619298062" y_displacement_sum="-59.3807019379" />
    <node avg_slowdown_ratio="0.0" id="node_06x10" junction="True" old_x="600.0" old_y="1000.0" type="right_before_left" weight_num="4.0" weight_sum="0.0" x="348.534817667" x_displacement_sum="-251.465182333" y="1000.0" y_displacement_sum="0.0" />
    <node avg_slowdown_ratio="0.0" id="node_06x11" junction="True" old_x="600.0" old_y="1100.0" type="right_before_left" weight_num="4.0" weight_sum="0.0" x="362.477192248" x_displacement_sum="-237.522807752" y="1159.38070194" y_displacement_sum="59.3807019379" />
    <node avg_slowdown_ratio="0.0" id="node_06x12" junction="True" old_x="600.0" old_y="1200.0" type="right_before_left" weight_num="4.0" weight_sum="0.0" x="397.743160332" x_displacement_sum="-202.256839668" y="1301.12841983" y_displacement_sum="101.128419834" />
    <node avg_slowdown_ratio="0.0" id="node_06x13" junction="True" old_x="600.0" old_y="1300.0" type="right_before_left" weight_num="4.0" weight_sum="0.0" x="446.0195737" x_displacement_sum="-153.9804263" y="1415.48531972" y_displacement_sum="115.485319725" />
    <node avg_slowdown_ratio="0.0" id="node_06x14" junction="True" old_x="600.0" old_y="1400.0" type="right_before_left" weight_num="4.0" weight_sum="0.0" x="505.694395732" x_displacement_sum="-94.3056042675" y="1494.30560427" y_displacement_sum="94.3056042675" />
    <node avg_slowdown_ratio="0.0" id="node_06x15" junction="True" old_x="600.0" old_y="1500.0" type="right_before_left" weight_num="4.0" weight_sum="0.0" x="575.295472385" x_displacement_sum="-24.7045276155" y="1530.88065952" y_displacement_sum="30.8806595194" />
    <node avg_slowdown_ratio="0.0" id="node_06x16" junction="True" old_x="600.0" old_y="1600.0" type="right_before_left" weight_num="4.0" weight_sum="0.0" x="600.0" y="1600.0" />
    <node avg_slowdown_ratio="0.0" id="node_06x17" junction="True" old_x="600.0" old_y="1700.0" type="right_before_left" weight_num="4.0" weight_sum="0.0" x="600.0" y="1700.0" />
    <node avg_slowdown_ratio="0.0" id="node_06x18" junction="True" old_x="600.0" old_y="1800.0" type="right_before_left" weight_num="4.0" weight_sum="0.0" x="600.0" y="1800.0" />
    <node avg_slowdown_ratio="0.0" id="node_06x19" junction="True" old_x="600.0" old_y="1900.0" type="right_before_left" weight_num="4.0" weight_sum="0.0" x="600.0" y="1900.0" />
    <node avg_slowdown_ratio="0.0" id="node_06x20" junction="True" old_x="600.0" old_y="2000.0" type="right_before_left" weight_num="3.0" weight_sum="0.0" x="600.0" y="2000.0" />
    <node avg_slowdown_ratio="0.0" id="node_07x00" junction="True" old_x="700.0" old_y="0.0" type="right_before_left" weight_num="3.0" weight_sum="0.0" x="700.0" y="0.0" />
    <node avg_slowdown_ratio="0.0" id="node_07x01" junction="True" old_x="700.0" old_y="100.0" type="right_before_left" weight_num="4.0" weight_sum="0.0" x="700.0" y="100.0" />
    <node avg_slowdown_ratio="0.0" id="node_07x02" junction="True" old_x="700.0" old_y="200.0" type="right_before_left" weight_num="4.0" weight_sum="0.0" x="700.0" y="200.0" />
    <node avg_slowdown_ratio="0.0" id="node_07x03" junction="True" old_x="700.0" old_y="300.0" type="right_before_left" weight_num="4.0" weight_sum="0.0" x="700.0" y="300.0" />
    <node avg_slowdown_ratio="0.0" id="node_07x04" junction="True" old_x="700.0" old_y="400.0" type="right_before_left" weight_num="4.0" weight_sum="0.0" x="700.0" y="400.0" />
    <node avg_slowdown_ratio="0.0" id="node_07x05" junction="True" old_x="700.0" old_y="500.0" type="right_before_left" weight_num="4.0" weight_sum="0.0" x="641.333487783" x_displacement_sum="-58.6665122168" y="402.222479639" y_displacement_sum="-97.7775203613" />
    <node avg_slowdown_ratio="0.0" id="node_07x06" junction="True" old_x="700.0" old_y="600.0" type="right_before_left" weight_num="4.0" weight_sum="0.0" x="584.514680275" x_displacement_sum="-115.485319725" y="446.0195737" y_displacement_sum="-153.9804263" />
    <node avg_slowdown_ratio="0.0" id="node_07x07" junction="True" old_x="700.0" old_y="700.0" type="right_before_left" weight_num="4.0" weight_sum="0.0" x="531.356838703" x_displacement_sum="-168.643161297" y="531.356838703" y_displacement_sum="-168.643161297" />
    <node avg_slowdown_ratio="0.0" id="node_07x08" junction="True" old_x="700.0" old_y="800.0" type="right_before_left" weight_num="4.0" weight_sum="0.0" x="472.491969671" x_displacement_sum="-227.508030329" y="648.327979781" y_displacement_sum="-151.672020219" />
    <node avg_slowdown_ratio="0.0" id="node_07x09" junction="True" old_x="700.0" old_y="900.0" type="right_before_left" weight_num="4.0" weight_sum="0.0" x="428.873635916" x_displacement_sum="-271.126364084" y="809.624545305" y_displacement_sum="-90.3754546948" />
    <node avg_slowdown_ratio="0.0" id="node_07x10" junction="True" old_x="700.0" old_y="1000.0" type="right_before_left" weight_num="4.0" weight_sum="0.0" x="417.991106631" x_displacement_sum="-282.008893369" y="1000.0" y_displacement_sum="0.0" />
    <node avg_slowdown_ratio="0.0" id="node_07x11" junction="True" old_x="700.0" old_y="1100.0" type="right_before_left" weight_num="4.0" weight_sum="0.0" x="428.873635916" x_displacement_sum="-271.126364084" y="1190.37545469" y_displacement_sum="90.3754546948" />
    <node avg_slowdown_ratio="0.0" id="node_07x12" junction="True" old_x="700.0" old_y="1200.0" type="right_before_left" weight_num="4.0" weight_sum="0.0" x="472.491969671" x_displacement_sum="-227.508030329" y="1351.67202022" y_displacement_sum="151.672020219" />
    <node avg_slowdown_ratio="0.0" id="node_07x13" junction="True" old_x="700.0" old_y="1300.0" type="right_before_left" weight_num="4.0" weight_sum="0.0" x="531.356838703" x_displacement_sum="-168.643161297" y="1468.6431613" y_displacement_sum="168.643161297" />
    <node avg_slowdown_ratio="0.0" id="node_07x14" junction="True" old_x="700.0" old_y="1400.0" type="right_before_left" weight_num="4.0" weight_sum="0.0" x="584.514680275" x_displacement_sum="-115.485319725" y="1553.9804263" y_displacement_sum="153.9804263" />
    <node avg_slowdown_ratio="0.0" id="node_07x15" junction="True" old_x="700.0" old_y="1500.0" type="right_before_left" weight_num="4.0" weight_sum="0.0" x="641.333487783" x_displacement_sum="-58.6665122168" y="1597.77752036" y_displacement_sum="97.7775203613" />
    <node avg_slowdown_ratio="0.0" id="node_07x16" junction="True" old_x="700.0" old_y="1600.0" type="right_before_left" weight_num="4.0" weight_sum="0.0" x="700.0" y="1600.0" />
    <node avg_slowdown_ratio="0.0" id="node_07x17" junction="True" old_x="700.0" old_y="1700.0" type="right_before_left" weight_num="4.0" weight_sum="0.0" x="700.0" y="1700.0" />
    <node avg_slowdown_ratio="0.0" id="node_07x18" junction="True" old_x="700.0" old_y="1800.0" type="right_before_left" weight_num="4.0" weight_sum="0.0" x="700.0" y="1800.0" />
    <node avg_slowdown_ratio="0.0" id="node_07x19" junction="True" old_x="700.0" old_y="1900.0" type="right_before_left" weight_num="4.0" weight_sum="0.0" x="700.0" y="1900.0" />
    <node avg_slowdown_ratio="0.0" id="node_07x20" junction="True" old_x="700.0" old_y="2000.0" type="right_before_left" weight_num="3.0" weight_sum="0.0" x="700.0" y="2000.0" />
    <node avg_slowdown_ratio="0.0" id="node_08x00" junction="True" old_x="800.0" old_y="0.0" type="right_before_left" weight_num="3.0" weight_sum="0.0" x="800.0" y="0.0" />
    <node avg_slowdown_ratio="0.0" id="node_08x01" junction="True" old_x="800.0" old_y="100.0" type="right_before_left" weight_num="4.0" weight_sum="0.0" x="800.0" y="100.0" />
    <node avg_slowdown_ratio="0.0" id="node_08x02" junction="True" old_x="800.0" old_y="200.0" type="right_before_left" weight_num="4.0" weight_sum="0.0" x="800.0" y="200.0" />
    <node avg_slowdown_ratio="0.0" id="node_08x03" junction="True" old_x="800.0" old_y="300.0" type="right_before_left" weight_num="4.0" weight_sum="0.0" x="800.0" y="300.0" />
    <node avg_slowdown_ratio="0.0" id="node_08x04" junction="True" old_x="800.0" old_y="400.0" type="right_before_left" weight_num="4.0" weight_sum="0.0" x="783.951818244" x_displacement_sum="-16.0481817563" y="351.855454731" y_displacement_sum="-48.1445452689" />
    <node avg_slowdown_ratio="0.0" id="node_08x05" junction="True" old_x="800.0" old_y="500.0" type="right_before_left" weight_num="4.0" weight_sum="0.0" x="740.41690137" x_displacement_sum="-59.5830986297" y="351.042253426" y_displacement_sum="-148.957746574" />
    <node avg_slowdown_ratio="0.0" id="node_08x06" junction="True" old_x="800.0" old_y="600.0" type="right_before_left" weight_num="4.0" weight_sum="0.0" x="698.871580166" x_displacement_sum="-101.128419834" y="397.743160332" y_displacement_sum="-202.256839668" />
    <node avg_slowdown_ratio="0.0" id="node_08x07" junction="True" old_x="800.0" old_y="700.0" type="right_before_left" weight_num="4.0" weight_sum="0.0" x="648.327979781" x_displacement_sum="-151.672020219" y="472.491969671" y_displacement_sum="-227.508030329" />
    <node avg_slowdown_ratio="0.0" id="node_08x08" junction="True" old_x="800.0" old_y="800.0" type="right_before_left" weight_num="4.0" weight_sum="0.0" x="606.818067407" x_displacement_sum="-193.181932593" y="606.818067407" y_displacement_sum="-193.181932593" />
    <node avg_slowdown_ratio="0.0" id="node_08x09" junction="True" old_x="800.0" old_y="900.0" type="right_before_left" weight_num="4.0" weight_sum="0.0" x="600.708757306" x_displacement_sum="-199.291242694" y="800.354378653" y_displacement_sum="-99.6456213468" />
    <node avg_slowdown_ratio="0.0" id="node_08x10" junction="True" old_x="800.0" old_y="1000.0" type="right_before_left" weight_num="4.0" weight_sum="0.0" x="600.26513236" x_displacement_sum="-199.73486764" y="1000.0" y_displacement_sum="0.0" />
    <node avg_slowdown_ratio="0.0" id="node_08x11" junction="True" old_x="800.0" old_y="1100.0" type="right_before_left" weight_num="4.0" weight_sum="0.0" x="600.708757306" x_displacement_sum="-199.291242694" y="1199.64562135" y_displacement_sum="99.6456213468" />
    <node avg_slowdown_ratio="0.0" id="node_08x12" junction="True" old_x="800.0" old_y="1200.0" type="right_before_left" weight_num="4.0" weight_sum="0.0" x="606.818067407" x_displacement_sum="-193.181932593" y="1393.18193259" y_displacement_sum="193.181932593" />
    <node avg_slowdown_ratio="0.0" id="node_08x13" junction="True" old_x="800.0" old_y="1300.0" type="right_before_left" weight_num="4.0" weight_sum="0.0" x="648.327979781" x_displacement_sum="-151.672020219" y="1527.50803033" y_displacement_sum="227.508030329" />
    <node avg_slowdown_ratio="0.0" id="node_08x14" junction="True" old_x="800.0" old_y="1400.0" type="right_before_left" weight_num="4.0" weight_sum="0.0" x="698.871580166" x_displacement_sum="-101.128419834" y="1602.25683967" y_displacement_sum="202.256839668" />
    <node avg_slowdown_ratio="0.0" id="node_08x15" junction="True" old_x="800.0" old_y="1500.0" type="right_before_left" weight_num="4.0" weight_sum="0.0" x="740.41690137" x_displacement_sum="-59.5830986297" y="1648.95774657" y_displacement_sum="148.957746574" />
    <node avg_slowdown_ratio="0.0" id="node_08x16" junction="True" old_x="800.0" old_y="1600.0" type="right_before_left" weight_num="4.0" weight_sum="0.0" x="783.951818244" x_displacement_sum="-16.0481817563" y="1648.14454527" y_displacement_sum="48.1445452689" />
    <node avg_slowdown_ratio="0.0" id="node_08x17" junction="True" old_x="800.0" old_y="1700.0" type="right_before_left" weight_num="4.0" weight_sum="0.0" x="800.0" y="1700.0" />
    <node avg_slowdown_ratio="0.0" id="node_08x18" junction="True" old_x="800.0" old_y="1800.0" type="right_before_left" weight_num="4.0" weight_sum="0.0" x="800.0" y="1800.0" />
    <node avg_slowdown_ratio="0.0" id="node_08x19" junction="True" old_x="800.0" old_y="1900.0" type="right_before_left" weight_num="4.0" weight_sum="0.0" x="800.0" y="1900.0" />
    <node avg_slowdown_ratio="0.0" id="node_08x20" junction="True" old_x="800.0" old_y="2000.0" type="right_before_left" weight_num="3.0" weight_sum="0.0" x="800.0" y="2000.0" />
    <node avg_slowdown_ratio="0.0" id="node_09x00" junction="True" old_x="900.0" old_y="0.0" type="right_before_left" weight_num="3.0" weight_sum="0.0" x="900.0" y="0.0" />
    <node avg_slowdown_ratio="0.0" id="node_09x01" junction="True" old_x="900.0" old_y="100.0" type="right_before_left" weight_num="4.0" weight_sum="0.0" x="900.0" y="100.0" />
    <node avg_slowdown_ratio="0.0" id="node_09x02" junction="True" old_x="900.0" old_y="200.0" type="right_before_left" weight_num="4.0" weight_sum="0.0" x="900.0" y="200.0" />
    <node avg_slowdown_ratio="0.0" id="node_09x03" junction="True" old_x="900.0" old_y="300.0" type="right_before_left" weight_num="4.0" weight_sum="0.0" x="900.0" y="300.0" />
    <node avg_slowdown_ratio="0.0" id="node_09x04" junction="True" old_x="900.0" old_y="400.0" type="right_before_left" weight_num="4.0" weight_sum="0.0" x="886.306850736" x_displacement_sum="-13.6931492645" y="317.841104413" y_displacement_sum="-82.1588955869" />
    <node avg_slowdown_ratio="0.0" id="node_09x05" junction="True" old_x="900.0" old_y="500.0" type="right_before_left" weight_num="4.0" weight_sum="0.0" x="863.734652202" x_displacement_sum="-36.2653477982" y="318.673261009" y_displacement_sum="-181.326738991" />
    <node avg_slowdown_ratio="0.0" id="node_09x06" junction="True" old_x="900.0" old_y="600.0" type="right_before_left" weight_num="4.0" weight_sum="0.0" x="840.619298062" x_displacement_sum="-59.3807019379" y="362.477192248" y_displacement_sum="-237.522807752" />
    <node avg_slowdown_ratio="0.0" id="node_09x07" junction="True" old_x="900.0" old_y="700.0" type="right_before_left" weight_num="4.0" weight_sum="0.0" x="809.624545305" x_displacement_sum="-90.3754546948" y="428.873635916" y_displacement_sum="-271.126364084" />
    <node avg_slowdown_ratio="0.0" id="node_09x08" junction="True" old_x="900.0" old_y="800.0" type="right_before_left" weight_num="4.0" weight_sum="0.0" x="800.354378653" x_displacement_sum="-99.6456213468" y="600.708757306" y_displacement_sum="-199.291242694" />
    <node avg_slowdown_ratio="0.0" id="node_09x09" junction="True" old_x="900.0" old_y="900.0" type="right_before_left" weight_num="4.0" weight_sum="0.0" x="800.009782303" x_displacement_sum="-99.9902176967" y="800.009782303" y_displacement_sum="-99.9902176967" />
    <node avg_slowdown_ratio="0.0" id="node_09x10" junction="True" old_x="900.0" old_y="1000.0" type="right_before_left" weight_num="4.0" weight_sum="0.0" x="800.001254182" x_displacement_sum="-99.9987458183" y="1000.0" y_displacement_sum="0.0" />
    <node avg_slowdown_ratio="0.0" id="node_09x11" junction="True" old_x="900.0" old_y="1100.0" type="right_before_left" weight_num="4.0" weight_sum="0.0" x="800.009782303" x_displacement_sum="-99.9902176967" y="1199.9902177" y_displacement_sum="99.9902176967" />
    <node avg_slowdown_ratio="0.0" id="node_09x12" junction="True" old_x="900.0" old_y="1200.0" type="right_before_left" weight_num="4.0" weight_sum="0.0" x="800.354378653" x_displacement_sum="-99.6456213468" y="1399.29124269" y_displacement_sum="199.291242694" />
    <node avg_slowdown_ratio="0.0" id="node_09x13" junction="True" old_x="900.0" old_y="1300.0" type="right_before_left" weight_num="4.0" weight_sum="0.0" x="809.624545305" x_displacement_sum="-90.3754546948" y="1571.12636408" y_displacement_sum="271.126364084" />
    <node avg_slowdown_ratio="0.0" id="node_09x14" junction="True" old_x="900.0" old_y="1400.0" type="right_before_left" weight_num="4.0" weight_sum="0.0" x="840.619298062" x_displacement_sum="-59.3807019379" y="1637.52280775" y_displacement_sum="237.522807752" />
    <node avg_slowdown_ratio="0.0" id="node_09x15" junction="True" old_x="900.0" old_y="1500.0" type="right_before_left" weight_num="4.0" weight_sum="0.0" x="863.734652202" x_displacement_sum="-36.2653477982" y="1681.32673899" y_displacement_sum="181.326738991" />
    <node avg_slowdown_ratio="0.0" id="node_09x16" junction="True" old_x="900.0" old_y="1600.0" type="right_before_left" weight_num="4.0" weight_sum="0.0" x="886.306850736" x_displacement_sum="-13.6931492645" y="1682.15889559" y_displacement_sum="82.1588955869" />
    <node avg_slowdown_ratio="0.0" id="node_09x17" junction="True" old_x="900.0" old_y="1700.0" type="right_before_left" weight_num="4.0" weight_sum="0.0" x="900.0" y="1700.0" />
    <node avg_slowdown_ratio="0.0" id="node_09x18" junction="True" old_x="900.0" old_y="1800.0" type="right_before_left" weight_num="4.0" weight_sum="0.0" x="900.0" y="1800.0" />
    <node avg_slowdown_ratio="0.0" id="node_09x19" junction="True" old_x="900.0" old_y="1900.0" type="right_before_left" weight_num="4.0" weight_sum="0.0" x="900.0" y="1900.0" />
    <node avg_slowdown_ratio="0.0" id="node_09x20" junction="True" old_x="900.0" old_y="2000.0" type="right_before_left" weight_num="3.0" weight_sum="0.0" x="900.0" y="2000.0" />
    <node avg_slowdown_ratio="0.0" id="node_10x00" junction="True" old_x="1000.0" old_y="0.0" type="right_before_left" weight_num="3.0" weight_sum="0.0" x="1000.0" y="0.0" />
    <node avg_slowdown_ratio="0.0" id="node_10x01" junction="True" old_x="1000.0" old_y="100.0" type="right_before_left" weight_num="4.0" weight_sum="0.0" x="1000.0" y="100.0" />
    <node avg_slowdown_ratio="0.0" id="node_10x02" junction="True" old_x="1000.0" old_y="200.0" type="right_before_left" weight_num="4.0" weight_sum="0.0" x="1000.0" y="200.0" />
    <node avg_slowdown_ratio="0.0" id="node_10x03" junction="True" old_x="1000.0" old_y="300.0" type="right_before_left" weight_num="4.0" weight_sum="0.0" x="1000.0" y="300.0" />
    <node avg_slowdown_ratio="0.0" id="node_10x04" junction="True" old_x="1000.0" old_y="400.0" type="right_before_left" weight_num="4.0" weight_sum="0.0" x="1000.0" x_displacement_sum="0.0" y="306.247809045" y_displacement_sum="-93.7521909549" />
    <node avg_slowdown_ratio="0.0" id="node_10x05" junction="True" old_x="1000.0" old_y="500.0" type="right_before_left" weight_num="4.0" weight_sum="0.0" x="1000.0" x_displacement_sum="0.0" y="307.524467125" y_displacement_sum="-192.475532875" />
    <node avg_slowdown_ratio="0.0" id="node_10x06" junction="True" old_x="1000.0" old_y="600.0" type="right_before_left" weight_num="4.0" weight_sum="0.0" x="1000.0" x_displacement_sum="0.0" y="348.534817667" y_displacement_sum="-251.465182333" />
    <node avg_slowdown_ratio="0.0" id="node_10x07" junction="True" old_x="1000.0" old_y="700.0" type="right_before_left" weight_num="4.0" weight_sum="0.0" x="1000.0" x_displacement_sum="0.0" y="417.991106631" y_displacement_sum="-282.008893369" />
    <node avg_slowdown_ratio="0.0" id="node_10x08" junction="True" old_x="1000.0" old_y="800.0" type="right_before_left" weight_num="4.0" weight_sum="0.0" x="1000.0" x_displacement_sum="0.0" y="600.26513236" y_displacement_sum="-199.73486764" />
    <node avg_slowdown_ratio="0.0" id="node_10x09" junction="True" old_x="1000.0" old_y="900.0" type="right_before_left" weight_num="4.0" weight_sum="0.0" x="1000.0" x_displacement_sum="0.0" y="800.001254182" y_displacement_sum="-99.9987458183" />
    <node avg_slowdown_ratio="0.0" id="node_10x11" junction="True" old_x="1000.0" old_y="1100.0" type="right_before_left" weight_num="4.0" weight_sum="0.0" x="1000.0" x_displacement_sum="0.0" y="1199.99874582" y_displacement_sum="99.9987458183" />
    <node avg_slowdown_ratio="0.0" id="node_10x12" junction="True" old_x="1000.0" old_y="1200.0" type="right_before_left" weight_num="4.0" weight_sum="0.0" x="1000.0" x_displacement_sum="0.0" y="1399.73486764" y_displacement_sum="199.73486764" />
    <node avg_slowdown_ratio="0.0" id="node_10x13" junction="True" old_x="1000.0" old_y="1300.0" type="right_before_left" weight_num="4.0" weight_sum="0.0" x="1000.0" x_displacement_sum="0.0" y="1582.00889337" y_displacement_sum="282.008893369" />
    <node avg_slowdown_ratio="0.0" id="node_10x14" junction="True" old_x="1000.0" old_y="1400.0" type="right_before_left" weight_num="4.0" weight_sum="0.0" x="1000.0" x_displacement_sum="0.0" y="1651.46518233" y_displacement_sum="251.465182333" />
    <node avg_slowdown_ratio="0.0" id="node_10x15" junction="True" old_x="1000.0" old_y="1500.0" type="right_before_left" weight_num="4.0" weight_sum="0.0" x="1000.0" x_displacement_sum="0.0" y="1692.47553287" y_displacement_sum="192.475532875" />
    <node avg_slowdown_ratio="0.0" id="node_10x16" junction="True" old_x="1000.0" old_y="1600.0" type="right_before_left" weight_num="4.0" weight_sum="0.0" x="1000.0" x_displacement_sum="0.0" y="1693.75219095" y_displacement_sum="93.7521909549" />
    <node avg_slowdown_ratio="0.0" id="node_10x17" junction="True" old_x="1000.0" old_y="1700.0" type="right_before_left" weight_num="4.0" weight_sum="0.0" x="1000.0" y="1700.0" />
    <node avg_slowdown_ratio="0.0" id="node_10x18" junction="True" old_x="1000.0" old_y="1800.0" type="right_before_left" weight_num="4.0" weight_sum="0.0" x="1000.0" y="1800.0" />
    <node avg_slowdown_ratio="0.0" id="node_10x19" junction="True" old_x="1000.0" old_y="1900.0" type="right_before_left" weight_num="4.0" weight_sum="0.0" x="1000.0" y="1900.0" />
    <node avg_slowdown_ratio="0.0" id="node_10x20" junction="True" old_x="1000.0" old_y="2000.0" type="right_before_left" weight_num="3.0" weight_sum="0.0" x="1000.0" y="2000.0" />
    <node avg_slowdown_ratio="0.0" id="node_11x00" junction="True" old_x="1100.0" old_y="0.0" type="right_before_left" weight_num="3.0" weight_sum="0.0" x="1100.0" y="0.0" />
    <node avg_slowdown_ratio="0.0" id="node_11x01" junction="True" old_x="1100.0" old_y="100.0" type="right_before_left" weight_num="4.0" weight_sum="0.0" x="1100.0" y="100.0" />
    <node avg_slowdown_ratio="0.0" id="node_11x02" junction="True" old_x="1100.0" old_y="200.0" type="right_before_left" weight_num="4.0" weight_sum="0.0" x="1100.0" y="200.0" />
    <node avg_slowdown_ratio="0.0" id="node_11x03" junction="True" old_x="1100.0" old_y="300.0" type="right_before_left" weight_num="4.0" weight_sum="0.0" x="1100.0" y="300.0" />
    <node avg_slowdown_ratio="0.0" id="node_11x04" junction="True" old_x="1100.0" old_y="400.0" type="right_before_left" weight_num="4.0" weight_sum="0.0" x="1113.69314926" x_displacement_sum="13.6931492645" y="317.841104413" y_displacement_sum="-82.1588955869" />
    <node avg_slowdown_ratio="0.0" id="node_11x05" junction="True" old_x="1100.0" old_y="500.0" type="right_before_left" weight_num="4.0" weight_sum="0.0" x="1136.2653478" x_displacement_sum="36.2653477982" y="318.673261009" y_displacement_sum="-181.326738991" />
    <node avg_slowdown_ratio="0.0" id="node_11x06" junction="True" old_x="1100.0" old_y="600.0" type="right_before_left" weight_num="4.0" weight_sum="0.0" x="1159.38070194" x_displacement_sum="59.3807019379" y="362.477192248" y_displacement_sum="-237.522807752" />
    <node avg_slowdown_ratio="0.0" id="node_11x07" junction="True" old_x="1100.0" old_y="700.0" type="right_before_left" weight_num="4.0" weight_sum="0.0" x="1190.37545469" x_displacement_sum="90.3754546948" y="428.873635916" y_displacement_sum="-271.126364084" />
    <node avg_slowdown_ratio="0.0" id="node_11x08" junction="True" old_x="1100.0" old_y="800.0" type="right_before_left" weight_num="4.0" weight_sum="0.0" x="1199.64562135" x_displacement_sum="99.6456213468" y="600.708757306" y_displacement_sum="-199.291242694" />
    <node avg_slowdown_ratio="0.0" id="node_11x09" junction="True" old_x="1100.0" old_y="900.0" type="right_before_left" weight_num="4.0" weight_sum="0.0" x="1199.9902177" x_displacement_sum="99.9902176967" y="800.009782303" y_displacement_sum="-99.9902176967" />
    <node avg_slowdown_ratio="0.0" id="node_11x10" junction="True" old_x="1100.0" old_y="1000.0" type="right_before_left" weight_num="4.0" weight_sum="0.0" x="1199.99874582" x_displacement_sum="99.9987458183" y="1000.0" y_displacement_sum="0.0" />
    <node avg_slowdown_ratio="0.0" id="node_11x11" junction="True" old_x="1100.0" old_y="1100.0" type="right_before_left" weight_num="4.0" weight_sum="0.0" x="1199.9902177" x_displacement_sum="99.9902176967" y="1199.9902177" y_displacement_sum="99.9902176967" />
    <node avg_slowdown_ratio="0.0" id="node_11x12" junction="True" old_x="1100.0" old_y="1200.0" type="right_before_left" weight_num="4.0" weight_sum="0.0" x="1199.64562135" x_displacement_sum="99.6456213468" y="1399.29124269" y_displacement_sum="199.291242694" />
    <node avg_slowdown_ratio="0.0" id="node_11x13" junction="True" old_x="1100.0" old_y="1300.0" type="right_before_left" weight_num="4.0" weight_sum="0.0" x="1190.37545469" x_displacement_sum="90.3754546948" y="1571.12636408" y_displacement_sum="271.126364084" />
    <node avg_slowdown_ratio="0.0" id="node_11x14" junction="True" old_x="1100.0" old_y="1400.0" type="right_before_left" weight_num="4.0" weight_sum="0.0" x="1159.38070194" x_displacement_sum="59.3807019379" y="1637.52280775" y_displacement_sum="237.522807752" />
    <node avg_slowdown_ratio="0.0" id="node_11x15" junction="True" old_x="1100.0" old_y="1500.0" type="right_before_left" weight_num="4.0" weight_sum="0.0" x="1136.2653478" x_displacement_sum="36.2653477982" y="1681.32673899" y_displacement_sum="181.326738991" />
    <node avg_slowdown_ratio="0.0" id="node_11x16" junction="True" old_x="1100.0" old_y="1600.0" type="right_before_left" weight_num="4.0" weight_sum="0.0" x="1113.69314926" x_displacement_sum="13.6931492645" y="1682.15889559" y_displacement_sum="82.1588955869" />
    <node avg_slowdown_ratio="0.0" id="node_11x17" junction="True" old_x="1100.0" old_y="1700.0" type="right_before_left" weight_num="4.0" weight_sum="0.0" x="1100.0" y="1700.0" />
    <node avg_slowdown_ratio="0.0" id="node_11x18" junction="True" old_x="1100.0" old_y="1800.0" type="right_before_left" weight_num="4.0" weight_sum="0.0" x="1100.0" y="1800.0" />
    <node avg_slowdown_ratio="0.0" id="node_11x19" junction="True" old_x="1100.0" old_y="1900.0" type="right_before_left" weight_num="4.0" weight_sum="0.0" x="1100.0" y="1900.0" />
    <node avg_slowdown_ratio="0.0" id="node_11x20" junction="True" old_x="1100.0" old_y="2000.0" type="right_before_left" weight_num="3.0" weight_sum="0.0" x="1100.0" y="2000.0" />
    <node avg_slowdown_ratio="0.0" id="node_12x00" junction="True" old_x="1200.0" old_y="0.0" type="right_before_left" weight_num="3.0" weight_sum="0.0" x="1200.0" y="0.0" />
    <node avg_slowdown_ratio="0.0" id="node_12x01" junction="True" old_x="1200.0" old_y="100.0" type="right_before_left" weight_num="4.0" weight_sum="0.0" x="1200.0" y="100.0" />
    <node avg_slowdown_ratio="0.0" id="node_12x02" junction="True" old_x="1200.0" old_y="200.0" type="right_before_left" weight_num="4.0" weight_sum="0.0" x="1200.0" y="200.0" />
    <node avg_slowdown_ratio="0.0" id="node_12x03" junction="True" old_x="1200.0" old_y="300.0" type="right_before_left" weight_num="4.0" weight_sum="0.0" x="1200.0" y="300.0" />
    <node avg_slowdown_ratio="0.0" id="node_12x04" junction="True" old_x="1200.0" old_y="400.0" type="right_before_left" weight_num="4.0" weight_sum="0.0" x="1216.04818176" x_displacement_sum="16.0481817563" y="351.855454731" y_displacement_sum="-48.1445452689" />
    <node avg_slowdown_ratio="0.0" id="node_12x05" junction="True" old_x="1200.0" old_y="500.0" type="right_before_left" weight_num="4.0" weight_sum="0.0" x="1259.58309863" x_displacement_sum="59.5830986297" y="351.042253426" y_displacement_sum="-148.957746574" />
    <node avg_slowdown_ratio="0.0" id="node_12x06" junction="True" old_x="1200.0" old_y="600.0" type="right_before_left" weight_num="4.0" weight_sum="0.0" x="1301.12841983" x_displacement_sum="101.128419834" y="397.743160332" y_displacement_sum="-202.256839668" />
    <node avg_slowdown_ratio="0.0" id="node_12x07" junction="True" old_x="1200.0" old_y="700.0" type="right_before_left" weight_num="4.0" weight_sum="0.0" x="1351.67202022" x_displacement_sum="151.672020219" y="472.491969671" y_displacement_sum="-227.508030329" />
    <node avg_slowdown_ratio="0.0" id="node_12x08" junction="True" old_x="1200.0" old_y="800.0" type="right_before_left" weight_num="4.0" weight_sum="0.0" x="1393.18193259" x_displacement_sum="193.181932593" y="606.818067407" y_displacement_sum="-193.181932593" />
    <node avg_slowdown_ratio="0.0" id="node_12x09" junction="True" old_x="1200.0" old_y="900.0" type="right_before_left" weight_num="4.0" weight_sum="0.0" x="1399.29124269" x_displacement_sum="199.291242694" y="800.354378653" y_displacement_sum="-99.6456213468" />
    <node avg_slowdown_ratio="0.0" id="node_12x10" junction="True" old_x="1200.0" old_y="1000.0" type="right_before_left" weight_num="4.0" weight_sum="0.0" x="1399.73486764" x_displacement_sum="199.73486764" y="1000.0" y_displacement_sum="0.0" />
    <node avg_slowdown_ratio="0.0" id="node_12x11" junction="True" old_x="1200.0" old_y="1100.0" type="right_before_left" weight_num="4.0" weight_sum="0.0" x="1399.29124269" x_displacement_sum="199.291242694" y="1199.64562135" y_displacement_sum="99.6456213468" />
    <node avg_slowdown_ratio="0.0" id="node_12x12" junction="True" old_x="1200.0" old_y="1200.0" type="right_before_left" weight_num="4.0" weight_sum="0.0" x="1393.18193259" x_displacement_sum="193.181932593" y="1393.18193259" y_displacement_sum="193.181932593" />
    <node avg_slowdown_ratio="0.0" id="node_12x13" junction="True" old_x="1200.0" old_y="1300.0" type="right_before_left" weight_num="4.0" weight_sum="0.0" x="1351.67202022" x_displacement_sum="151.672020219" y="1527.50803033" y_displacement_sum="227.508030329" />
    <node avg_slowdown_ratio="0.0" id="node_12x14" junction="True" old_x="1200.0" old_y="1400.0" type="right_before_left" weight_num="4.0" weight_sum="0.0" x="1301.12841983" x_displacement_sum="101.128419834" y="1602.25683967" y_displacement_sum="202.256839668" />
    <node avg_slowdown_ratio="0.0" id="node_12x15" junction="True" old_x="1200.0" old_y="1500.0" type="right_before_left" weight_num="4.0" weight_sum="0.0" x="1259.58309863" x_displacement_sum="59.5830986297" y="1648.95774657" y_displacement_sum="148.957746574" />
    <node avg_slowdown_ratio="0.0" id="node_12x16" junction="True" old_x="1200.0" old_y="1600.0" type="right_before_left" weight_num="4.0" weight_sum="0.0" x="1216.04818176" x_displacement_sum="16.0481817563" y="1648.14454527" y_displacement_sum="48.1445452689" />
    <node avg_slowdown_ratio="0.0" id="node_12x17" junction="True" old_x="1200.0" old_y="1700.0" type="right_before_left" weight_num="4.0" weight_sum="0.0" x="1200.0" y="1700.0" />
    <node avg_slowdown_ratio="0.0" id="node_12x18" junction="True" old_x="1200.0" old_y="1800.0" type="right_before_left" weight_num="4.0" weight_sum="0.0" x="1200.0" y="1800.0" />
    <node avg_slowdown_ratio="0.0" id="node_12x19" junction="True" old_x="1200.0" old_y="1900.0" type="right_before_left" weight_num="4.0" weight_sum="0.0" x="1200.0" y="1900.0" />
    <node avg_slowdown_ratio="0.0" id="node_12x20" junction="True" old_x="1200.0" old_y="2000.0" type="right_before_left" weight_num="3.0" weight_sum="0.0" x="1200.0" y="2000.0" />
    <node avg_slowdown_ratio="0.0" id="node_13x00" junction="True" old_x="1300.0" old_y="0.0" type="right_before_left" weight_num="3.0" weight_sum="0.0" x="1300.0" y="0.0" />
    <node avg_slowdown_ratio="0.0" id="node_13x01" junction="True" old_x="1300.0" old_y="100.0" type="right_before_left" weight_num="4.0" weight_sum="0.0" x="1300.0" y="100.0" />
    <node avg_slowdown_ratio="0.0" id="node_13x02" junction="True" old_x="1300.0" old_y="200.0" type="right_before_left" weight_num="4.0" weight_sum="0.0" x="1300.0" y="200.0" />
    <node avg_slowdown_ratio="0.0" id="node_13x03" junction="True" old_x="1300.0" old_y="300.0" type="right_before_left" weight_num="4.0" weight_sum="0.0" x="1300.0" y="300.0" />
    <node avg_slowdown_ratio="0.0" id="node_13x04" junction="True" old_x="1300.0" old_y="400.0" type="right_before_left" weight_num="4.0" weight_sum="0.0" x="1300.0" y="400.0" />
    <node avg_slowdown_ratio="0.0" id="node_13x05" junction="True" old_x="1300.0" old_y="500.0" type="right_before_left" weight_num="4.0" weight_sum="0.0" x="1358.66651222" x_displacement_sum="58.6665122168" y="402.222479639" y_displacement_sum="-97.7775203613" />
    <node avg_slowdown_ratio="0.0" id="node_13x06" junction="True" old_x="1300.0" old_y="600.0" type="right_before_left" weight_num="4.0" weight_sum="0.0" x="1415.48531972" x_displacement_sum="115.485319725" y="446.0195737" y_displacement_sum="-153.9804263" />
    <node avg_slowdown_ratio="0.0" id="node_13x07" junction="True" old_x="1300.0" old_y="700.0" type="right_before_left" weight_num="4.0" weight_sum="0.0" x="1468.6431613" x_displacement_sum="168.643161297" y="531.356838703" y_displacement_sum="-168.643161297" />
    <node avg_slowdown_ratio="0.0" id="node_13x08" junction="True" old_x="1300.0" old_y="800.0" type="right_before_left" weight_num="4.0" weight_sum="0.0" x="1527.50803033" x_displacement_sum="227.508030329" y="648.327979781" y_displacement_sum="-151.672020219" />
    <node avg_slowdown_ratio="0.0" id="node_13x09" junction="True" old_x="1300.0" old_y="900.0" type="right_before_left" weight_num="4.0" weight_sum="0.0" x="1571.12636408" x_displacement_sum="271.126364084" y="809.624545305" y_displacement_sum="-90.3754546948" />
    <node avg_slowdown_ratio="0.0" id="node_13x10" junction="True" old_x="1300.0" old_y="1000.0" type="right_before_left" weight_num="4.0" weight_sum="0.0" x="1582.00889337" x_displacement_sum="282.008893369" y="1000.0" y_displacement_sum="0.0" />
    <node avg_slowdown_ratio="0.0" id="node_13x11" junction="True" old_x="1300.0" old_y="1100.0" type="right_before_left" weight_num="4.0" weight_sum="0.0" x="1571.12636408" x_displacement_sum="271.126364084" y="1190.37545469" y_displacement_sum="90.3754546948" />
    <node avg_slowdown_ratio="0.0" id="node_13x12" junction="True" old_x="1300.0" old_y="1200.0" type="right_before_left" weight_num="4.0" weight_sum="0.0" x="1527.50803033" x_displacement_sum="227.508030329" y="1351.67202022" y_displacement_sum="151.672020219" />
    <node avg_slowdown_ratio="0.0" id="node_13x13" junction="True" old_x="1300.0" old_y="1300.0" type="right_before_left" weight_num="4.0" weight_sum="0.0" x="1468.6431613" x_displacement_sum="168.643161297" y="1468.6431613" y_displacement_sum="168.643161297" />
    <node avg_slowdown_ratio="0.0" id="node_13x14" junction="True" old_x="1300.0" old_y="1400.0" type="right_before_left" weight_num="4.0" weight_sum="0.0" x="1415.48531972" x_displacement_sum="115.485319725" y="1553.9804263" y_displacement_sum="153.9804263" />
    <node avg_slowdown_ratio="0.0" id="node_13x15" junction="True" old_x="1300.0" old_y="1500.0" type="right_before_left" weight_num="4.0" weight_sum="0.0" x="1358.66651222" x_displacement_sum="58.6665122168" y="1597.77752036" y_displacement_sum="97.7775203613" />
    <node avg_slowdown_ratio="0.0" id="node_13x16" junction="True" old_x="1300.0" old_y="1600.0" type="right_before_left" weight_num="4.0" weight_sum="0.0" x="1300.0" y="1600.0" />
    <node avg_slowdown_ratio="0.0" id="node_13x17" junction="True" old_x="1300.0" old_y="1700.0" type="right_before_left" weight_num="4.0" weight_sum="0.0" x="1300.0" y="1700.0" />
    <node avg_slowdown_ratio="0.0" id="node_13x18" junction="True" old_x="1300.0" old_y="1800.0" type="right_before_left" weight_num="4.0" weight_sum="0.0" x="1300.0" y="1800.0" />
    <node avg_slowdown_ratio="0.0" id="node_13x19" junction="True" old_x="1300.0" old_y="1900.0" type="right_before_left" weight_num="4.0" weight_sum="0.0" x="1300.0" y="1900.0" />
    <node avg_slowdown_ratio="0.0" id="node_13x20" junction="True" old_x="1300.0" old_y="2000.0" type="right_before_left" weight_num="3.0" weight_sum="0.0" x="1300.0" y="2000.0" />
    <node avg_slowdown_ratio="0.0" id="node_14x00" junction="True" old_x="1400.0" old_y="0.0" type="right_before_left" weight_num="3.0" weight_sum="0.0" x="1400.0" y="0.0" />
    <node avg_slowdown_ratio="0.0" id="node_14x01" junction="True" old_x="1400.0" old_y="100.0" type="right_before_left" weight_num="4.0" weight_sum="0.0" x="1400.0" y="100.0" />
    <node avg_slowdown_ratio="0.0" id="node_14x02" junction="True" old_x="1400.0" old_y="200.0" type="right_before_left" weight_num="4.0" weight_sum="0.0" x="1400.0" y="200.0" />
    <node avg_slowdown_ratio="0.0" id="node_14x03" junction="True" old_x="1400.0" old_y="300.0" type="right_before_left" weight_num="4.0" weight_sum="0.0" x="1400.0" y="300.0" />
    <node avg_slowdown_ratio="0.0" id="node_14x04" junction="True" old_x="1400.0" old_y="400.0" type="right_before_left" weight_num="4.0" weight_sum="0.0" x="1400.0" y="400.0" />
    <node avg_slowdown_ratio="0.0" id="node_14x05" junction="True" old_x="1400.0" old_y="500.0" type="right_before_left" weight_num="4.0" weight_sum="0.0" x="1424.70452762" x_displacement_sum="24.7045276155" y="469.119340481" y_displacement_sum="-30.8806595194" />
    <node avg_slowdown_ratio="0.0" id="node_14x06" junction="True" old_x="1400.0" old_y="600.0" type="right_before_left" weight_num="4.0" weight_sum="0.0" x="1494.30560427" x_displacement_sum="94.3056042675" y="505.694395732" y_displacement_sum="-94.3056042675" />
    <node avg_slowdown_ratio="0.0" id="node_14x07" junction="True" old_x="1400.0" old_y="700.0" type="right_before_left" weight_num="4.0" weight_sum="0.0" x="1553.9804263" x_displacement_sum="153.9804263" y="584.514680275" y_displacement_sum="-115.485319725" />
    <node avg_slowdown_ratio="0.0" id="node_14x08" junction="True" old_x="1400.0" old_y="800.0" type="right_before_left" weight_num="4.0" weight_sum="0.0" x="1602.25683967" x_displacement_sum="202.256839668" y="698.871580166" y_displacement_sum="-101.128419834" />
    <node avg_slowdown_ratio="0.0" id="node_14x09" junction="True" old_x="1400.0" old_y="900.0" type="right_before_left" weight_num="4.0" weight_sum="0.0" x="1637.52280775" x_displacement_sum="237.522807752" y="840.619298062" y_displacement_sum="-59.3807019379" />
    <node avg_slowdown_ratio="0.0" id="node_14x10" junction="True" old_x="1400.0" old_y="1000.0" type="right_before_left" weight_num="4.0" weight_sum="0.0" x="1651.46518233" x_displacement_sum="251.465182333" y="1000.0" y_displacement_sum="0.0" />
    <node avg_slowdown_ratio="0.0" id="node_14x11" junction="True" old_x="1400.0" old_y="1100.0" type="right_before_left" weight_num="4.0" weight_sum="0.0" x="1637.52280775" x_displacement_sum="237.522807752" y="1159.38070194" y_displacement_sum="59.3807019379" />
    <node avg_slowdown_ratio="0.0" id="node_14x12" junction="True" old_x="1400.0" old_y="1200.0" type="right_before_left" weight_num="4.0" weight_sum="0.0" x="1602.25683967" x_displacement_sum="202.256839668" y="1301.12841983" y_displacement_sum="101.128419834" />
    <node avg_slowdown_ratio="0.0" id="node_14x13" junction="True" old_x="1400.0" old_y="1300.0" type="right_before_left" weight_num="4.0" weight_sum="0.0" x="1553.9804263" x_displacement_sum="153.9804263" y="1415.48531972" y_displacement_sum="115.485319725" />
    <node avg_slowdown_ratio="0.0" id="node_14x14" junction="True" old_x="1400.0" old_y="1400.0" type="right_before_left" weight_num="4.0" weight_sum="0.0" x="1494.30560427" x_displacement_sum="94.3056042675" y="1494.30560427" y_displacement_sum="94.3056042675" />
    <node avg_slowdown_ratio="0.0" id="node_14x15" junction="True" old_x="1400.0" old_y="1500.0" type="right_before_left" weight_num="4.0" weight_sum="0.0" x="1424.70452762" x_displacement_sum="24.7045276155" y="1530.88065952" y_displacement_sum="30.8806595194" />
    <node avg_slowdown_ratio="0.0" id="node_14x16" junction="True" old_x="1400.0" old_y="1600.0" type="right_before_left" weight_num="4.0" weight_sum="0.0" x="1400.0" y="1600.0" />
    <node avg_slowdown_ratio="0.0" id="node_14x17" junction="True" old_x="1400.0" old_y="1700.0" type="right_before_left" weight_num="4.0" weight_sum="0.0" x="1400.0" y="1700.0" />
    <node avg_slowdown_ratio="0.0" id="node_14x18" junction="True" old_x="1400.0" old_y="1800.0" type="right_before_left" weight_num="4.0" weight_sum="0.0" x="1400.0" y="1800.0" />
    <node avg_slowdown_ratio="0.0" id="node_14x19" junction="True" old_x="1400.0" old_y="1900.0" type="right_before_left" weight_num="4.0" weight_sum="0.0" x="1400.0" y="1900.0" />
    <node avg_slowdown_ratio="0.0" id="node_14x20" junction="True" old_x="1400.0" old_y="2000.0" type="right_before_left" weight_num="3.0" weight_sum="0.0" x="1400.0" y="2000.0" />
    <node avg_slowdown_ratio="0.0" id="node_15x00" junction="True" old_x="1500.0" old_y="0.0" type="right_before_left" weight_num="3.0" weight_sum="0.0" x="1500.0" y="0.0" />
    <node avg_slowdown_ratio="0.0" id="node_15x01" junction="True" old_x="1500.0" old_y="100.0" type="right_before_left" weight_num="4.0" weight_sum="0.0" x="1500.0" y="100.0" />
    <node avg_slowdown_ratio="0.0" id="node_15x02" junction="True" old_x="1500.0" old_y="200.0" type="right_before_left" weight_num="4.0" weight_sum="0.0" x="1500.0" y="200.0" />
    <node avg_slowdown_ratio="0.0" id="node_15x03" junction="True" old_x="1500.0" old_y="300.0" type="right_before_left" weight_num="4.0" weight_sum="0.0" x="1500.0" y="300.0" />
    <node avg_slowdown_ratio="0.0" id="node_15x04" junction="True" old_x="1500.0" old_y="400.0" type="right_before_left" weight_num="4.0" weight_sum="0.0" x="1500.0" y="400.0" />
    <node avg_slowdown_ratio="0.0" id="node_15x05" junction="True" old_x="1500.0" old_y="500.0" type="right_before_left" weight_num="4.0" weight_sum="0.0" x="1500.0" y="500.0" />
    <node avg_slowdown_ratio="0.0" id="node_15x06" junction="True" old_x="1500.0" old_y="600.0" type="right_before_left" weight_num="4.0" weight_sum="0.0" x="1530.88065952" x_displacement_sum="30.8806595194" y="575.295472385" y_displacement_sum="-24.7045276155" />
    <node avg_slowdown_ratio="0.0" id="node_15x07" junction="True" old_x="1500.0" old_y="700.0" type="right_before_left" weight_num="4.0" weight_sum="0.0" x="1597.77752036" x_displacement_sum="97.7775203613" y="641.333487783" y_displacement_sum="-58.6665122168" />
    <node avg_slowdown_ratio="0.0" id="node_15x08" junction="True" old_x="1500.0" old_y="800.0" type="right_before_left" weight_num="4.0" weight_sum="0.0" x="1648.95774657" x_displacement_sum="148.957746574" y="740.41690137" y_displacement_sum="-59.5830986297" />
    <node avg_slowdown_ratio="0.0" id="node_15x09" junction="True" old_x="1500.0" old_y="900.0" type="right_before_left" weight_num="4.0" weight_sum="0.0" x="1681.32673899" x_displacement_sum="181.326738991" y="863.734652202" y_displacement_sum="-36.2653477982" />
    <node avg_slowdown_ratio="0.0" id="node_15x10" junction="True" old_x="1500.0" old_y="1000.0" type="right_before_left" weight_num="4.0" weight_sum="0.0" x="1692.47553287" x_displacement_sum="192.475532875" y="1000.0" y_displacement_sum="0.0" />
    <node avg_slowdown_ratio="0.0" id="node_15x11" junction="True" old_x="1500.0" old_y="1100.0" type="right_before_left" weight_num="4.0" weight_sum="0.0" x="1681.32673899" x_displacement_sum="181.326738991" y="1136.2653478" y_displacement_sum="36.2653477982" />
    <node avg_slowdown_ratio="0.0" id="node_15x12" junction="True" old_x="1500.0" old_y="1200.0" type="right_before_left" weight_num="4.0" weight_sum="0.0" x="1648.95774657" x_displacement_sum="148.957746574" y="1259.58309863" y_displacement_sum="59.5830986297" />
    <node avg_slowdown_ratio="0.0" id="node_15x13" junction="True" old_x="1500.0" old_y="1300.0" type="right_before_left" weight_num="4.0" weight_sum="0.0" x="1597.77752036" x_displacement_sum="97.7775203613" y="1358.66651222" y_displacement_sum="58.6665122168" />
    <node avg_slowdown_ratio="0.0" id="node_15x14" junction="True" old_x="1500.0" old_y="1400.0" type="right_before_left" weight_num="4.0" weight_sum="0.0" x="1530.88065952" x_displacement_sum="30.8806595194" y="1424.70452762" y_displacement_sum="24.7045276155" />
    <node avg_slowdown_ratio="0.0" id="node_15x15" junction="True" old_x="1500.0" old_y="1500.0" type="right_before_left" weight_num="4.0" weight_sum="0.0" x="1500.0" y="1500.0" />
    <node avg_slowdown_ratio="0.0" id="node_15x16" junction="True" old_x="1500.0" old_y="1600.0" type="right_before_left" weight_num="4.0" weight_sum="0.0" x="1500.0" y="1600.0" />
    <node avg_slowdown_ratio="0.0" id="node_15x17" junction="True" old_x="1500.0" old_y="1700.0" type="right_before_left" weight_num="4.0" weight_sum="0.0" x="1500.0" y="1700.0" />
    <node avg_slowdown_ratio="0.0" id="node_15x18" junction="True" old_x="1500.0" old_y="1800.0" type="right_before_left" weight_num="4.0" weight_sum="0.0" x="1500.0" y="1800.0" />
    <node avg_slowdown_ratio="0.0" id="node_15x19" junction="True" old_x="1500.0" old_y="1900.0" type="right_before_left" weight_num="4.0" weight_sum="0.0" x="1500.0" y="1900.0" />
    <node avg_slowdown_ratio="0.0" id="node_15x20" junction="True" old_x="1500.0" old_y="2000.0" type="right_before_left" weight_num="3.0" weight_sum="0.0" x="1500.0" y="2000.0" />
    <node avg_slowdown_ratio="0.0" id="node_16x00" junction="True" old_x="1600.0" old_y="0.0" type="right_before_left" weight_num="3.0" weight_sum="0.0" x="1600.0" y="0.0" />
    <node avg_slowdown_ratio="0.0" id="node_16x01" junction="True" old_x="1600.0" old_y="100.0" type="right_before_left" weight_num="4.0" weight_sum="0.0" x="1600.0" y="100.0" />
    <node avg_slowdown_ratio="0.0" id="node_16x02" junction="True" old_x="1600.0" old_y="200.0" type="right_before_left" weight_num="4.0" weight_sum="0.0" x="1600.0" y="200.0" />
    <node avg_slowdown_ratio="0.0" id="node_16x03" junction="True" old_x="1600.0" old_y="300.0" type="right_before_left" weight_num="4.0" weight_sum="0.0" x="1600.0" y="300.0" />
    <node avg_slowdown_ratio="0.0" id="node_16x04" junction="True" old_x="1600.0" old_y="400.0" type="right_before_left" weight_num="4.0" weight_sum="0.0" x="1600.0" y="400.0" />
    <node avg_slowdown_ratio="0.0" id="node_16x05" junction="True" old_x="1600.0" old_y="500.0" type="right_before_left" weight_num="4.0" weight_sum="0.0" x="1600.0" y="500.0" />
    <node avg_slowdown_ratio="0.0" id="node_16x06" junction="True" old_x="1600.0" old_y="600.0" type="right_before_left" weight_num="4.0" weight_sum="0.0" x="1600.0" y="600.0" />
    <node avg_slowdown_ratio="0.0" id="node_16x07" junction="True" old_x="1600.0" old_y="700.0" type="right_before_left" weight_num="4.0" weight_sum="0.0" x="1600.0" y="700.0" />
    <node avg_slowdown_ratio="0.0" id="node_16x08" junction="True" old_x="1600.0" old_y="800.0" type="right_before_left" weight_num="4.0" weight_sum="0.0" x="1648.14454527" x_displacement_sum="48.1445452689" y="783.951818244" y_displacement_sum="-16.0481817563" />
    <node avg_slowdown_ratio="0.0" id="node_16x09" junction="True" old_x="1600.0" old_y="900.0" type="right_before_left" weight_num="4.0" weight_sum="0.0" x="1682.15889559" x_displacement_sum="82.1588955869" y="886.306850736" y_displacement_sum="-13.6931492645" />
    <node avg_slowdown_ratio="0.0" id="node_16x10" junction="True" old_x="1600.0" old_y="1000.0" type="right_before_left" weight_num="4.0" weight_sum="0.0" x="1693.75219095" x_displacement_sum="93.7521909549" y="1000.0" y_displacement_sum="0.0" />
    <node avg_slowdown_ratio="0.0" id="node_16x11" junction="True" old_x="1600.0" old_y="1100.0" type="right_before_left" weight_num="4.0" weight_sum="0.0" x="1682.15889559" x_displacement_sum="82.1588955869" y="1113.69314926" y_displacement_sum="13.6931492645" />
    <node avg_slowdown_ratio="0.0" id="node_16x12" junction="True" old_x="1600.0" old_y="1200.0" type="right_before_left" weight_num="4.0" weight_sum="0.0" x="1648.14454527" x_displacement_sum="48.1445452689" y="1216.04818176" y_displacement_sum="16.0481817563" />
    <node avg_slowdown_ratio="0.0" id="node_16x13" junction="True" old_x="1600.0" old_y="1300.0" type="right_before_left" weight_num="4.0" weight_sum="0.0" x="1600.0" y="1300.0" />
    <node avg_slowdown_ratio="0.0" id="node_16x14" junction="True" old_x="1600.0" old_y="1400.0" type="right_before_left" weight_num="4.0" weight_sum="0.0" x="1600.0" y="1400.0" />
    <node avg_slowdown_ratio="0.0" id="node_16x15" junction="True" old_x="1600.0" old_y="1500.0" type="right_before_left" weight_num="4.0" weight_sum="0.0" x="1600.0" y="1500.0" />
    <node avg_slowdown_ratio="0.0" id="node_16x16" junction="True" old_x="1600.0" old_y="1600.0" type="right_before_left" weight_num="4.0" weight_sum="0.0" x="1600.0" y="1600.0" />
    <node avg_slowdown_ratio="0.0" id="node_16x17" junction="True" old_x="1600.0" old_y="1700.0" type="right_before_left" weight_num="4.0" weight_sum="0.0" x="1600.0" y="1700.0" />
    <node avg_slowdown_ratio="0.0" id="node_16x18" junction="True" old_x="1600.0" old_y="1800.0" type="right_before_left" weight_num="4.0" weight_sum="0.0" x="1600.0" y="1800.0" />
    <node avg_slowdown_ratio="0.0" id="node_16x19" junction="True" old_x="1600.0" old_y="1900.0" type="right_before_left" weight_num="4.0" weight_sum="0.0" x="1600.0" y="1900.0" />
    <node avg_slowdown_ratio="0.0" id="node_16x20" junction="True" old_x="1600.0" old_y="2000.0" type="right_before_left" weight_num="3.0" weight_sum="0.0" x="1600.0" y="2000.0" />
    <node avg_slowdown_ratio="0.0" id="node_17x00" junction="True" old_x="1700.0" old_y="0.0" type="right_before_left" weight_num="3.0" weight_sum="0.0" x="1700.0" y="0.0" />
    <node avg_slowdown_ratio="0.0" id="node_17x01" junction="True" old_x="1700.0" old_y="100.0" type="right_before_left" weight_num="4.0" weight_sum="0.0" x="1700.0" y="100.0" />
    <node avg_slowdown_ratio="0.0" id="node_17x02" junction="True" old_x="1700.0" old_y="200.0" type="right_before_left" weight_num="4.0" weight_sum="0.0" x="1700.0" y="200.0" />
    <node avg_slowdown_ratio="0.0" id="node_17x03" junction="True" old_x="1700.0" old_y="300.0" type="right_before_left" weight_num="4.0" weight_sum="0.0" x="1700.0" y="300.0" />
    <node avg_slowdown_ratio="0.0" id="node_17x04" junction="True" old_x="1700.0" old_y="400.0" type="right_before_left" weight_num="4.0" weight_sum="0.0" x="1700.0" y="400.0" />
    <node avg_slowdown_ratio="0.0" id="node_17x05" junction="True" old_x="1700.0" old_y="500.0" type="right_before_left" weight_num="4.0" weight_sum="0.0" x="1700.0" y="500.0" />
    <node avg_slowdown_ratio="0.0" id="node_17x06" junction="True" old_x="1700.0" old_y="600.0" type="right_before_left" weight_num="4.0" weight_sum="0.0" x="1700.0" y="600.0" />
    <node avg_slowdown_ratio="0.0" id="node_17x07" junction="True" old_x="1700.0" old_y="700.0" type="right_before_left" weight_num="4.0" weight_sum="0.0" x="1700.0" y="700.0" />
    <node avg_slowdown_ratio="0.0" id="node_17x08" junction="True" old_x="1700.0" old_y="800.0" type="right_before_left" weight_num="4.0" weight_sum="0.0" x="1700.0" y="800.0" />
    <node avg_slowdown_ratio="0.0" id="node_17x09" junction="True" old_x="1700.0" old_y="900.0" type="right_before_left" weight_num="4.0" weight_sum="0.0" x="1700.0" y="900.0" />
    <node avg_slowdown_ratio="0.0" id="node_17x10" junction="True" old_x="1700.0" old_y="1000.0" type="right_before_left" weight_num="4.0" weight_sum="0.0" x="1700.0" y="1000.0" />
    <node avg_slowdown_ratio="0.0" id="node_17x11" junction="True" old_x="1700.0" old_y="1100.0" type="right_before_left" weight_num="4.0" weight_sum="0.0" x="1700.0" y="1100.0" />
    <node avg_slowdown_ratio="0.0" id="node_17x12" junction="True" old_x="1700.0" old_y="1200.0" type="right_before_left" weight_num="4.0" weight_sum="0.0" x="1700.0" y="1200.0" />
    <node avg_slowdown_ratio="0.0" id="node_17x13" junction="True" old_x="1700.0" old_y="1300.0" type="right_before_left" weight_num="4.0" weight_sum="0.0" x="1700.0" y="1300.0" />
    <node avg_slowdown_ratio="0.0" id="node_17x14" junction="True" old_x="1700.0" old_y="1400.0" type="right_before_left" weight_num="4.0" weight_sum="0.0" x="1700.0" y="1400.0" />
    <node avg_slowdown_ratio="0.0" id="node_17x15" junction="True" old_x="1700.0" old_y="1500.0" type="right_before_left" weight_num="4.0" weight_sum="0.0" x="1700.0" y="1500.0" />
    <node avg_slowdown_ratio="0.0" id="node_17x16" junction="True" old_x="1700.0" old_y="1600.0" type="right_before_left" weight_num="4.0" weight_sum="0.0" x="1700.0" y="1600.0" />
    <node avg_slowdown_ratio="0.0" id="node_17x17" junction="True" old_x="1700.0" old_y="1700.0" type="right_before_left" weight_num="4.0" weight_sum="0.0" x="1700.0" y="1700.0" />
    <node avg_slowdown_ratio="0.0" id="node_17x18" junction="True" old_x="1700.0" old_y="1800.0" type="right_before_left" weight_num="4.0" weight_sum="0.0" x="1700.0" y="1800.0" />
    <node avg_slowdown_ratio="0.0" id="node_17x19" junction="True" old_x="1700.0" old_y="1900.0" type="right_before_left" weight_num="4.0" weight_sum="0.0" x="1700.0" y="1900.0" />
    <node avg_slowdown_ratio="0.0" id="node_17x20" junction="True" old_x="1700.0" old_y="2000.0" type="right_before_left" weight_num="3.0" weight_sum="0.0" x="1700.0" y="2000.0" />
    <node avg_slowdown_ratio="0.0" id="node_18x00" junction="True" old_x="1800.0" old_y="0.0" type="right_before_left" weight_num="3.0" weight_sum="0.0" x="1800.0" y="0.0" />
    <node avg_slowdown_ratio="0.0" id="node_18x01" junction="True" old_x="1800.0" old_y="100.0" type="right_before_left" weight_num="4.0" weight_sum="0.0" x="1800.0" y="100.0" />
    <node avg_slowdown_ratio="0.0" id="node_18x02" junction="True" old_x="1800.0" old_y="200.0" type="right_before_left" weight_num="4.0" weight_sum="0.0" x="1800.0" y="200.0" />
    <node avg_slowdown_ratio="0.0" id="node_18x03" junction="True" old_x="1800.0" old_y="300.0" type="right_before_left" weight_num="4.0" weight_sum="0.0" x="1800.0" y="300.0" />
    <node avg_slowdown_ratio="0.0" id="node_18x04" junction="True" old_x="1800.0" old_y="400.0" type="right_before_left" weight_num="4.0" weight_sum="0.0" x="1800.0" y="400.0" />
    <node avg_slowdown_ratio="0.0" id="node_18x05" junction="True" old_x="1800.0" old_y="500.0" type="right_before_left" weight_num="4.0" weight_sum="0.0" x="1800.0" y="500.0" />
    <node avg_slowdown_ratio="0.0" id="node_18x06" junction="True" old_x="1800.0" old_y="600.0" type="right_before_left" weight_num="4.0" weight_sum="0.0" x="1800.0" y="600.0" />
    <node avg_slowdown_ratio="0.0" id="node_18x07" junction="True" old_x="1800.0" old_y="700.0" type="right_before_left" weight_num="4.0" weight_sum="0.0" x="1800.0" y="700.0" />
    <node avg_slowdown_ratio="0.0" id="node_18x08" junction="True" old_x="1800.0" old_y="800.0" type="right_before_left" weight_num="4.0" weight_sum="0.0" x="1800.0" y="800.0" />
    <node avg_slowdown_ratio="0.0" id="node_18x09" junction="True" old_x="1800.0" old_y="900.0" type="right_before_left" weight_num="4.0" weight_sum="0.0" x="1800.0" y="900.0" />
    <node avg_slowdown_ratio="0.0" id="node_18x10" junction="True" old_x="1800.0" old_y="1000.0" type="right_before_left" weight_num="4.0" weight_sum="0.0" x="1800.0" y="1000.0" />
    <node avg_slowdown_ratio="0.0" id="node_18x11" junction="True" old_x="1800.0" old_y="1100.0" type="right_before_left" weight_num="4.0" weight_sum="0.0" x="1800.0" y="1100.0" />
    <node avg_slowdown_ratio="0.0" id="node_18x12" junction="True" old_x="1800.0" old_y="1200.0" type="right_before_left" weight_num="4.0" weight_sum="0.0" x="1800.0" y="1200.0" />
    <node avg_slowdown_ratio="0.0" id="node_18x13" junction="True" old_x="1800.0" old_y="1300.0" type="right_before_left" weight_num="4.0" weight_sum="0.0" x="1800.0" y="1300.0" />
    <node avg_slowdown_ratio="0.0" id="node_18x14" junction="True" old_x="1800.0" old_y="1400.0" type="right_before_left" weight_num="4.0" weight_sum="0.0" x="1800.0" y="1400.0" />
    <node avg_slowdown_ratio="0.0" id="node_18x15" junction="True" old_x="1800.0" old_y="1500.0" type="right_before_left" weight_num="4.0" weight_sum="0.0" x="1800.0" y="1500.0" />
    <node avg_slowdown_ratio="0.0" id="node_18x16" junction="True" old_x="1800.0" old_y="1600.0" type="right_before_left" weight_num="4.0" weight_sum="0.0" x="1800.0" y="1600.0" />
    <node avg_slowdown_ratio="0.0" id="node_18x17" junction="True" old_x="1800.0" old_y="1700.0" type="right_before_left" weight_num="4.0" weight_sum="0.0" x="1800.0" y="1700.0" />
    <node avg_slowdown_ratio="0.0" id="node_18x18" junction="True" old_x="1800.0" old_y="1800.0" type="right_before_left" weight_num="4.0" weight_sum="0.0" x="1800.0" y="1800.0" />
    <node avg_slowdown_ratio="0.0" id="node_18x19" junction="True" old_x="1800.0" old_y="1900.0" type="right_before_left" weight_num="4.0" weight_sum="0.0" x="1800.0" y="1900.0" />
    <node avg_slowdown_ratio="0.0" id="node_18x20" junction="True" old_x="1800.0" old_y="2000.0" type="right_before_left" weight_num="3.0" weight_sum="0.0" x="1800.0" y="2000.0" />
    <node avg_slowdown_ratio="0.0" id="node_19x00" junction="True" old_x="1900.0" old_y="0.0" type="right_before_left" weight_num="3.0" weight_sum="0.0" x="1900.0" y="0.0" />
    <node avg_slowdown_ratio="0.0" id="node_19x01" junction="True" old_x="1900.0" old_y="100.0" type="right_before_left" weight_num="4.0" weight_sum="0.0" x="1900.0" y="100.0" />
    <node avg_slowdown_ratio="0.0" id="node_19x02" junction="True" old_x="1900.0" old_y="200.0" type="right_before_left" weight_num="4.0" weight_sum="0.0" x="1900.0" y="200.0" />
    <node avg_slowdown_ratio="0.0" id="node_19x03" junction="True" old_x="1900.0" old_y="300.0" type="right_before_left" weight_num="4.0" weight_sum="0.0" x="1900.0" y="300.0" />
    <node avg_slowdown_ratio="0.0" id="node_19x04" junction="True" old_x="1900.0" old_y="400.0" type="right_before_left" weight_num="4.0" weight_sum="0.0" x="1900.0" y="400.0" />
    <node avg_slowdown_ratio="0.0" id="node_19x05" junction="True" old_x="1900.0" old_y="500.0" type="right_before_left" weight_num="4.0" weight_sum="0.0" x="1900.0" y="500.0" />
    <node avg_slowdown_ratio="0.0" id="node_19x06" junction="True" old_x="1900.0" old_y="600.0" type="right_before_left" weight_num="4.0" weight_sum="0.0" x="1900.0" y="600.0" />
    <node avg_slowdown_ratio="0.0" id="node_19x07" junction="True" old_x="1900.0" old_y="700.0" type="right_before_left" weight_num="4.0" weight_sum="0.0" x="1900.0" y="700.0" />
    <node avg_slowdown_ratio="0.0" id="node_19x08" junction="True" old_x="1900.0" old_y="800.0" type="right_before_left" weight_num="4.0" weight_sum="0.0" x="1900.0" y="800.0" />
    <node avg_slowdown_ratio="0.0" id="node_19x09" junction="True" old_x="1900.0" old_y="900.0" type="right_before_left" weight_num="4.0" weight_sum="0.0" x="1900.0" y="900.0" />
    <node avg_slowdown_ratio="0.0" id="node_19x10" junction="True" old_x="1900.0" old_y="1000.0" type="right_before_left" weight_num="4.0" weight_sum="0.0" x="1900.0" y="1000.0" />
    <node avg_slowdown_ratio="0.0" id="node_19x11" junction="True" old_x="1900.0" old_y="1100.0" type="right_before_left" weight_num="4.0" weight_sum="0.0" x="1900.0" y="1100.0" />
    <node avg_slowdown_ratio="0.0" id="node_19x12" junction="True" old_x="1900.0" old_y="1200.0" type="right_before_left" weight_num="4.0" weight_sum="0.0" x="1900.0" y="1200.0" />
    <node avg_slowdown_ratio="0.0" id="node_19x13" junction="True" old_x="1900.0" old_y="1300.0" type="right_before_left" weight_num="4.0" weight_sum="0.0" x="1900.0" y="1300.0" />
    <node avg_slowdown_ratio="0.0" id="node_19x14" junction="True" old_x="1900.0" old_y="1400.0" type="right_before_left" weight_num="4.0" weight_sum="0.0" x="1900.0" y="1400.0" />
    <node avg_slowdown_ratio="0.0" id="node_19x15" junction="True" old_x="1900.0" old_y="1500.0" type="right_before_left" weight_num="4.0" weight_sum="0.0" x="1900.0" y="1500.0" />
    <node avg_slowdown_ratio="0.0" id="node_19x16" junction="True" old_x="1900.0" old_y="1600.0" type="right_before_left" weight_num="4.0" weight_sum="0.0" x="1900.0" y="1600.0" />
    <node avg_slowdown_ratio="0.0" id="node_19x17" junction="True" old_x="1900.0" old_y="1700.0" type="right_before_left" weight_num="4.0" weight_sum="0.0" x="1900.0" y="1700.0" />
    <node avg_slowdown_ratio="0.0" id="node_19x18" junction="True" old_x="1900.0" old_y="1800.0" type="right_before_left" weight_num="4.0" weight_sum="0.0" x="1900.0" y="1800.0" />
    <node avg_slowdown_ratio="0.0" id="node_19x19" junction="True" old_x="1900.0" old_y="1900.0" type="right_before_left" weight_num="4.0" weight_sum="0.0" x="1900.0" y="1900.0" />
    <node avg_slowdown_ratio="0.0" id="node_19x20" junction="True" old_x="1900.0" old_y="2000.0" type="right_before_left" weight_num="3.0" weight_sum="0.0" x="1900.0" y="2000.0" />
    <node avg_slowdown_ratio="0.0" id="node_20x00" junction="True" old_x="2000.0" old_y="0.0" type="right_before_left" weight_num="2.0" weight_sum="0.0" x="2000.0" y="0.0" />
    <node avg_slowdown_ratio="0.0" id="node_20x01" junction="True" old_x="2000.0" old_y="100.0" type="right_before_left" weight_num="3.0" weight_sum="0.0" x="2000.0" y="100.0" />
    <node avg_slowdown_ratio="0.0" id="node_20x02" junction="True" old_x="2000.0" old_y="200.0" type="right_before_left" weight_num="3.0" weight_sum="0.0" x="2000.0" y="200.0" />
    <node avg_slowdown_ratio="0.0" id="node_20x03" junction="True" old_x="2000.0" old_y="300.0" type="right_before_left" weight_num="3.0" weight_sum="0.0" x="2000.0" y="300.0" />
    <node avg_slowdown_ratio="0.0" id="node_20x04" junction="True" old_x="2000.0" old_y="400.0" type="right_before_left" weight_num="3.0" weight_sum="0.0" x="2000.0" y="400.0" />
    <node avg_slowdown_ratio="0.0" id="node_20x05" junction="True" old_x="2000.0" old_y="500.0" type="right_before_left" weight_num="3.0" weight_sum="0.0" x="2000.0" y="500.0" />
    <node avg_slowdown_ratio="0.0" id="node_20x06" junction="True" old_x="2000.0" old_y="600.0" type="right_before_left" weight_num="3.0" weight_sum="0.0" x="2000.0" y="600.0" />
    <node avg_slowdown_ratio="0.0" id="node_20x07" junction="True" old_x="2000.0" old_y="700.0" type="right_before_left" weight_num="3.0" weight_sum="0.0" x="2000.0" y="700.0" />
    <node avg_slowdown_ratio="0.0" id="node_20x08" junction="True" old_x="2000.0" old_y="800.0" type="right_before_left" weight_num="3.0" weight_sum="0.0" x="2000.0" y="800.0" />
    <node avg_slowdown_ratio="0.0" id="node_20x09" junction="True" old_x="2000.0" old_y="900.0" type="right_before_left" weight_num="3.0" weight_sum="0.0" x="2000.0" y="900.0" />
    <node avg_slowdown_ratio="0.0" id="node_20x10" junction="True" old_x="2000.0" old_y="1000.0" type="right_before_left" weight_num="3.0" weight_sum="0.0" x="2000.0" y="1000.0" />
    <node avg_slowdown_ratio="0.0" id="node_20x11" junction="True" old_x="2000.0" old_y="1100.0" type="right_before_left" weight_num="3.0" weight_sum="0.0" x="2000.0" y="1100.0" />
    <node avg_slowdown_ratio="0.0" id="node_20x12" junction="True" old_x="2000.0" old_y="1200.0" type="right_before_left" weight_num="3.0" weight_sum="0.0" x="2000.0" y="1200.0" />
    <node avg_slowdown_ratio="0.0" id="node_20x13" junction="True" old_x="2000.0" old_y="1300.0" type="right_before_left" weight_num="3.0" weight_sum="0.0" x="2000.0" y="1300.0" />
    <node avg_slowdown_ratio="0.0" id="node_20x14" junction="True" old_x="2000.0" old_y="1400.0" type="right_before_left" weight_num="3.0" weight_sum="0.0" x="2000.0" y="1400.0" />
    <node avg_slowdown_ratio="0.0" id="node_20x15" junction="True" old_x="2000.0" old_y="1500.0" type="right_before_left" weight_num="3.0" weight_sum="0.0" x="2000.0" y="1500.0" />
    <node avg_slowdown_ratio="0.0" id="node_20x16" junction="True" old_x="2000.0" old_y="1600.0" type="right_before_left" weight_num="3.0" weight_sum="0.0" x="2000.0" y="1600.0" />
    <node avg_slowdown_ratio="0.0" id="node_20x17" junction="True" old_x="2000.0" old_y="1700.0" type="right_before_left" weight_num="3.0" weight_sum="0.0" x="2000.0" y="1700.0" />
    <node avg_slowdown_ratio="0.0" id="node_20x18" junction="True" old_x="2000.0" old_y="1800.0" type="right_before_left" weight_num="3.0" weight_sum="0.0" x="2000.0" y="1800.0" />
    <node avg_slowdown_ratio="0.0" id="node_20x19" junction="True" old_x="2000.0" old_y="1900.0" type="right_before_left" weight_num="3.0" weight_sum="0.0" x="2000.0" y="1900.0" />
    <node avg_slowdown_ratio="0.0" id="node_20x20" junction="True" old_x="2000.0" old_y="2000.0" type="right_before_left" weight_num="2.0" weight_sum="0.0" x="2000.0" y="2000.0" />
</nodes>