<?xml version='1.0' encoding='UTF-8'?>
<nodes xmlns:xsi="http://www.w3.org/2001/XMLSchema-instance" version="0.27" xsi:noNamespaceSchemaLocation="http://sumo.dlr.de/xsd/edges_file.xsd"><node avg_slowdown_ratio="0.999280057598" id="node_10x10" junction="True" old_x="1000.0" old_y="1000.0" type="right_before_left" weight_num="4.0" weight_sum="3.99712023039" x="1000.0" x_displacement_sum="1.2857956247e-10" y="1000.0" y_displacement_sum="1.26915624277e-11" />
    <node avg_slowdown_ratio="0.0" id="node_00x00" junction="True" old_x="0.0" old_y="0.0" type="right_before_left" weight_num="2.0" weight_sum="0.0" x="-213.353533604" x_displacement_sum="-213.353533604" y="-213.353533606" y_displacement_sum="-213.353533606" />
    <node avg_slowdown_ratio="0.0" id="node_00x01" junction="True" old_x="0.0" old_y="100.0" type="right_before_left" weight_num="3.0" weight_sum="0.0" x="-276.221502196" x_displacement_sum="-276.221502196" y="-50.638195097" y_displacement_sum="-150.638195097" />
    <node avg_slowdown_ratio="0.0" id="node_00x02" junction="True" old_x="0.0" old_y="200.0" type="right_before_left" weight_num="3.0" weight_sum="0.0" x="-313.726395075" x_displacement_sum="-313.726395075" y="112.692852415" y_displacement_sum="-87.3071475851" />
    <node avg_slowdown_ratio="0.0" id="node_00x03" junction="True" old_x="0.0" old_y="300.0" type="right_before_left" weight_num="3.0" weight_sum="0.0" x="-332.879678127" x_displacement_sum="-332.879678127" y="254.749256396" y_displacement_sum="-45.2507436043" />
    <node avg_slowdown_ratio="0.0" id="node_00x04" junction="True" old_x="0.0" old_y="400.0" type="right_before_left" weight_num="3.0" weight_sum="0.0" x="-341.90871723" x_displacement_sum="-341.90871723" y="378.030400594" y_displacement_sum="-21.969599406" />
    <node avg_slowdown_ratio="0.0" id="node_00x05" junction="True" old_x="0.0" old_y="500.0" type="right_before_left" weight_num="3.0" weight_sum="0.0" x="-346.026388181" x_displacement_sum="-346.026388181" y="489.721121927" y_displacement_sum="-10.2788780731" />
    <node avg_slowdown_ratio="0.0" id="node_00x06" junction="True" old_x="0.0" old_y="600.0" type="right_before_left" weight_num="3.0" weight_sum="0.0" x="-347.928976851" x_displacement_sum="-347.928976851" y="595.256664388" y_displacement_sum="-4.74333561235" />
    <node avg_slowdown_ratio="0.0" id="node_00x07" junction="True" old_x="0.0" old_y="700.0" type="right_before_left" weight_num="3.0" weight_sum="0.0" x="-348.87089308" x_displacement_sum="-348.87089308" y="697.796053792" y_displacement_sum="-2.20394620808" />
    <node avg_slowdown_ratio="0.0" id="node_00x08" junction="True" old_x="0.0" old_y="800.0" type="right_before_left" weight_num="3.0" weight_sum="0.0" x="-349.382826779" x_displacement_sum="-349.382826779" y="798.975130082" y_displacement_sum="-1.02486991828" />
    <node avg_slowdown_ratio="0.0" id="node_00x09" junction="True" old_x="0.0" old_y="900.0" type="right_before_left" weight_num="3.0" weight_sum="0.0" x="-349.657542064" x_displacement_sum="-349.657542064" y="899.586214424" y_displacement_sum="-0.413785575786" />
    <node avg_slowdown_ratio="0.0" id="node_00x10" junction="True" old_x="0.0" old_y="1000.0" type="right_before_left" weight_num="3.0" weight_sum="0.0" x="-349.746707702" x_displacement_sum="-349.746707702" y="1000.0" y_displacement_sum="1.27082317079e-11" />
    <node avg_slowdown_ratio="0.0" id="node_00x11" junction="True" old_x="0.0" old_y="1100.0" type="right_before_left" weight_num="3.0" weight_sum="0.0" x="-349.657542063" x_displacement_sum="-349.657542063" y="1100.41378558" y_displacement_sum="0.413785575646" />
    <node avg_slowdown_ratio="0.0" id="node_00x12" junction="True" old_x="0.0" old_y="1200.0" type="right_before_left" weight_num="3.0" weight_sum="0.0" x="-349.382826778" x_displacement_sum="-349.382826778" y="1201.02486992" y_displacement_sum="1.02486991826" />
    <node avg_slowdown_ratio="0.0" id="node_00x13" junction="True" old_x="0.0" old_y="1300.0" type="right_before_left" weight_num="3.0" weight_sum="0.0" x="-348.870893079" x_displacement_sum="-348.870893079" y="1302.20394621" y_displacement_sum="2.20394620806" />
    <node avg_slowdown_ratio="0.0" id="node_00x14" junction="True" old_x="0.0" old_y="1400.0" type="right_before_left" weight_num="3.0" weight_sum="0.0" x="-347.92897685" x_displacement_sum="-347.92897685" y="1404.74333561" y_displacement_sum="4.74333561237" />
    <node avg_slowdown_ratio="0.0" id="node_00x15" junction="True" old_x="0.0" old_y="1500.0" type="right_before_left" weight_num="3.0" weight_sum="0.0" x="-346.026388181" x_displacement_sum="-346.026388181" y="1510.27887807" y_displacement_sum="10.2788780731" />
    <node avg_slowdown_ratio="0.0" id="node_00x16" junction="True" old_x="0.0" old_y="1600.0" type="right_before_left" weight_num="3.0" weight_sum="0.0" x="-341.908717229" x_displacement_sum="-341.908717229" y="1621.96959941" y_displacement_sum="21.969599406" />
    <node avg_slowdown_ratio="0.0" id="node_00x17" junction="True" old_x="0.0" old_y="1700.0" type="right_before_left" weight_num="3.0" weight_sum="0.0" x="-332.879678126" x_displacement_sum="-332.879678126" y="1745.2507436" y_displacement_sum="45.2507436043" />
    <node avg_slowdown_ratio="0.0" id="node_00x18" junction="True" old_x="0.0" old_y="1800.0" type="right_before_left" weight_num="3.0" weight_sum="0.0" x="-313.726395073" x_displacement_sum="-313.726395073" y="1887.30714759" y_displacement_sum="87.3071475852" />
    <node avg_slowdown_ratio="0.0" id="node_00x19" junction="True" old_x="0.0" old_y="1900.0" type="right_before_left" weight_num="3.0" weight_sum="0.0" x="-276.221502194" x_displacement_sum="-276.221502194" y="2050.6381951" y_displacement_sum="150.638195097" />
    <node avg_slowdown_ratio="0.0" id="node_00x20" junction="True" old_x="0.0" old_y="2000.0" type="right_before_left" weight_num="2.0" weight_sum="0.0" x="-213.353533603" x_displacement_sum="-213.353533603" y="2213.3535336" y_displacement_sum="213.353533605" />
    <node avg_slowdown_ratio="0.0" id="node_01x00" junction="True" old_x="100.0" old_y="0.0" type="right_before_left" weight_num="3.0" weight_sum="0.0" x="-50.638195096" x_displacement_sum="-150.638195096" y="-276.221502195" y_displacement_sum="-276.221502195" />
    <node avg_slowdown_ratio="0.0" id="node_01x01" junction="True" old_x="100.0" old_y="100.0" type="right_before_left" weight_num="4.0" weight_sum="0.0" x="-93.967040598" x_displacement_sum="-193.967040598" y="-93.967040599" y_displacement_sum="-193.967040599" />
    <node avg_slowdown_ratio="0.0" id="node_01x02" junction="True" old_x="100.0" old_y="200.0" type="right_before_left" weight_num="4.0" weight_sum="0.0" x="-121.85194746" x_displacement_sum="-221.85194746" y="88.644776182" y_displacement_sum="-111.355223818" />
    <node avg_slowdown_ratio="0.0" id="node_01x03" junction="True" old_x="100.0" old_y="300.0" type="right_before_left" weight_num="4.0" weight_sum="0.0" x="-137.011678051" x_displacement_sum="-237.011678051" y="242.835567664" y_displacement_sum="-57.1644323359" />
    <node avg_slowdown_ratio="0.0" id="node_01x04" junction="True" old_x="100.0" old_y="400.0" type="right_before_left" weight_num="4.0" weight_sum="0.0" x="-144.565256019" x_displacement_sum="-244.565256019" y="372.422612655" y_displacement_sum="-27.5773873452" />
    <node avg_slowdown_ratio="0.0" id="node_01x05" junction="True" old_x="100.0" old_y="500.0" type="right_before_left" weight_num="4.0" weight_sum="0.0" x="-148.265453658" x_displacement_sum="-248.265453658" y="487.064213748" y_displacement_sum="-12.9357862521" />
    <node avg_slowdown_ratio="0.0" id="node_01x06" junction="True" old_x="100.0" old_y="600.0" type="right_before_left" weight_num="4.0" weight_sum="0.0" x="-150.21106653" x_displacement_sum="-250.21106653" y="593.890931094" y_displacement_sum="-6.10906890614" />
    <node avg_slowdown_ratio="0.0" id="node_01x07" junction="True" old_x="100.0" old_y="700.0" type="right_before_left" weight_num="4.0" weight_sum="0.0" x="-151.40452076" x_displacement_sum="-251.40452076" y="696.991667672" y_displacement_sum="-3.00833232793" />
    <node avg_slowdown_ratio="0.0" id="node_01x08" junction="True" old_x="100.0" old_y="800.0" type="right_before_left" weight_num="4.0" weight_sum="0.0" x="-152.231240024" x_displacement_sum="-252.231240024" y="798.469481508" y_displacement_sum="-1.53051849172" />
    <node avg_slowdown_ratio="0.0" id="node_01x09" junction="True" old_x="100.0" old_y="900.0" type="right_before_left" weight_num="4.0" weight_sum="0.0" x="-152.76162864" x_displacement_sum="-252.76162864" y="899.327668686" y_displacement_sum="-0.672331314482" />
    <node avg_slowdown_ratio="0.0" id="node_01x10" junction="True" old_x="100.0" old_y="1000.0" type="right_before_left" weight_num="4.0" weight_sum="0.0" x="-152.949084025" x_displacement_sum="-252.949084025" y="1000.0" y_displacement_sum="1.27082324307e-11" />
    <node avg_slowdown_ratio="0.0" id="node_01x11" junction="True" old_x="100.0" old_y="1100.0" type="right_before_left" weight_num="4.0" weight_sum="0.0" x="-152.761628639" x_displacement_sum="-252.761628639" y="1100.67233131" y_displacement_sum="0.672331314343" />
    <node avg_slowdown_ratio="0.0" id="node_01x12" junction="True" old_x="100.0" old_y="1200.0" type="right_before_left" weight_num="4.0" weight_sum="0.0" x="-152.231240023" x_displacement_sum="-252.231240023" y="1201.53051849" y_displacement_sum="1.53051849173" />
    <node avg_slowdown_ratio="0.0" id="node_01x13" junction="True" old_x="100.0" old_y="1300.0" type="right_before_left" weight_num="4.0" weight_sum="0.0" x="-151.40452076" x_displacement_sum="-251.40452076" y="1303.00833233" y_displacement_sum="3.008332328" />
    <node avg_slowdown_ratio="0.0" id="node_01x14" junction="True" old_x="100.0" old_y="1400.0" type="right_before_left" weight_num="4.0" weight_sum="0.0" x="-150.211066529" x_displacement_sum="-250.211066529" y="1406.10906891" y_displacement_sum="6.10906890615" />
    <node avg_slowdown_ratio="0.0" id="node_01x15" junction="True" old_x="100.0" old_y="1500.0" type="right_before_left" weight_num="4.0" weight_sum="0.0" x="-148.265453657" x_displacement_sum="-248.265453657" y="1512.93578625" y_displacement_sum="12.935786252" />
    <node avg_slowdown_ratio="0.0" id="node_01x16" junction="True" old_x="100.0" old_y="1600.0" type="right_before_left" weight_num="4.0" weight_sum="0.0" x="-144.565256019" x_displacement_sum="-244.565256019" y="1627.57738735" y_displacement_sum="27.5773873453" />
    <node avg_slowdown_ratio="0.0" id="node_01x17" junction="True" old_x="100.0" old_y="1700.0" type="right_before_left" weight_num="4.0" weight_sum="0.0" x="-137.011678051" x_displacement_sum="-237.011678051" y="1757.16443234" y_displacement_sum="57.164432336" />
    <node avg_slowdown_ratio="0.0" id="node_01x18" junction="True" old_x="100.0" old_y="1800.0" type="right_before_left" weight_num="4.0" weight_sum="0.0" x="-121.85194746" x_displacement_sum="-221.85194746" y="1911.35522382" y_displacement_sum="111.355223817" />
    <node avg_slowdown_ratio="0.0" id="node_01x19" junction="True" old_x="100.0" old_y="1900.0" type="right_before_left" weight_num="4.0" weight_sum="0.0" x="-93.967040599" x_displacement_sum="-193.967040599" y="2093.9670406" y_displacement_sum="193.967040599" />
    <node avg_slowdown_ratio="0.0" id="node_01x20" junction="True" old_x="100.0" old_y="2000.0" type="right_before_left" weight_num="3.0" weight_sum="0.0" x="-50.638195097" x_displacement_sum="-150.638195097" y="2276.2215022" y_displacement_sum="276.221502197" />
    <node avg_slowdown_ratio="0.0" id="node_02x00" junction="True" old_x="200.0" old_y="0.0" type="right_before_left" weight_num="3.0" weight_sum="0.0" x="112.692852415" x_displacement_sum="-87.3071475848" y="-313.726395077" y_displacement_sum="-313.726395077" />
    <node avg_slowdown_ratio="0.0" id="node_02x01" junction="True" old_x="200.0" old_y="100.0" type="right_before_left" weight_num="4.0" weight_sum="0.0" x="88.644776178" x_displacement_sum="-111.355223822" y="-121.851947461" y_displacement_sum="-221.851947461" />
    <node avg_slowdown_ratio="0.0" id="node_02x02" junction="True" old_x="200.0" old_y="200.0" type="right_before_left" weight_num="4.0" weight_sum="0.0" x="71.856160553" x_displacement_sum="-128.143839447" y="71.856160556" y_displacement_sum="-128.143839444" />
    <node avg_slowdown_ratio="0.0" id="node_02x03" junction="True" old_x="200.0" old_y="300.0" type="right_before_left" weight_num="4.0" weight_sum="0.0" x="61.857086276" x_displacement_sum="-138.142913724" y="233.873809843" y_displacement_sum="-66.126190157" />
    <node avg_slowdown_ratio="0.0" id="node_02x04" junction="True" old_x="200.0" old_y="400.0" type="right_before_left" weight_num="4.0" weight_sum="0.0" x="56.320426629" x_displacement_sum="-143.679573371" y="367.814167852" y_displacement_sum="-32.1858321476" />
    <node avg_slowdown_ratio="0.0" id="node_02x05" junction="True" old_x="200.0" old_y="500.0" type="right_before_left" weight_num="4.0" weight_sum="0.0" x="53.121707386" x_displacement_sum="-146.878292614" y="484.525733841" y_displacement_sum="-15.474266159" />
    <node avg_slowdown_ratio="0.0" id="node_02x06" junction="True" old_x="200.0" old_y="600.0" type="right_before_left" weight_num="4.0" weight_sum="0.0" x="50.910053403" x_displacement_sum="-149.089946597" y="592.212828244" y_displacement_sum="-7.78717175618" />
    <node avg_slowdown_ratio="0.0" id="node_02x07" junction="True" old_x="200.0" old_y="700.0" type="right_before_left" weight_num="4.0" weight_sum="0.0" x="49.03725412" x_displacement_sum="-150.96274588" y="695.675719189" y_displacement_sum="-4.3242808109" />
    <node avg_slowdown_ratio="0.0" id="node_02x08" junction="True" old_x="200.0" old_y="800.0" type="right_before_left" weight_num="4.0" weight_sum="0.0" x="47.384365874" x_displacement_sum="-152.615634126" y="797.449192584" y_displacement_sum="-2.55080741579" />
    <node avg_slowdown_ratio="0.0" id="node_02x09" junction="True" old_x="200.0" old_y="900.0" type="right_before_left" weight_num="4.0" weight_sum="0.0" x="46.1742449" x_displacement_sum="-153.8257551" y="898.745696139" y_displacement_sum="-1.25430386143" />
    <node avg_slowdown_ratio="0.0" id="node_02x10" junction="True" old_x="200.0" old_y="1000.0" type="right_before_left" weight_num="4.0" weight_sum="0.0" x="45.722576493" x_displacement_sum="-154.277423507" y="1000.0" y_displacement_sum="1.27081892534e-11" />
    <node avg_slowdown_ratio="0.0" id="node_02x11" junction="True" old_x="200.0" old_y="1100.0" type="right_before_left" weight_num="4.0" weight_sum="0.0" x="46.1742449" x_displacement_sum="-153.8257551" y="1101.25430386" y_displacement_sum="1.2543038613" />
    <node avg_slowdown_ratio="0.0" id="node_02x12" junction="True" old_x="200.0" old_y="1200.0" type="right_before_left" weight_num="4.0" weight_sum="0.0" x="47.384365874" x_displacement_sum="-152.615634126" y="1202.55080742" y_displacement_sum="2.55080741589" />
    <node avg_slowdown_ratio="0.0" id="node_02x13" junction="True" old_x="200.0" old_y="1300.0" type="right_before_left" weight_num="4.0" weight_sum="0.0" x="49.037254119" x_displacement_sum="-150.962745881" y="1304.32428081" y_displacement_sum="4.32428081105" />
    <node avg_slowdown_ratio="0.0" id="node_02x14" junction="True" old_x="200.0" old_y="1400.0" type="right_before_left" weight_num="4.0" weight_sum="0.0" x="50.910053403" x_displacement_sum="-149.089946597" y="1407.78717176" y_displacement_sum="7.78717175617" />
    <node avg_slowdown_ratio="0.0" id="node_02x15" junction="True" old_x="200.0" old_y="1500.0" type="right_before_left" weight_num="4.0" weight_sum="0.0" x="53.121707383" x_displacement_sum="-146.878292617" y="1515.47426616" y_displacement_sum="15.474266159" />
    <node avg_slowdown_ratio="0.0" id="node_02x16" junction="True" old_x="200.0" old_y="1600.0" type="right_before_left" weight_num="4.0" weight_sum="0.0" x="56.320426626" x_displacement_sum="-143.679573374" y="1632.18583215" y_displacement_sum="32.1858321477" />
    <node avg_slowdown_ratio="0.0" id="node_02x17" junction="True" old_x="200.0" old_y="1700.0" type="right_before_left" weight_num="4.0" weight_sum="0.0" x="61.857086274" x_displacement_sum="-138.142913726" y="1766.12619016" y_displacement_sum="66.126190157" />
    <node avg_slowdown_ratio="0.0" id="node_02x18" junction="True" old_x="200.0" old_y="1800.0" type="right_before_left" weight_num="4.0" weight_sum="0.0" x="71.856160554" x_displacement_sum="-128.143839446" y="1928.14383944" y_displacement_sum="128.143839444" />
    <node avg_slowdown_ratio="0.0" id="node_02x19" junction="True" old_x="200.0" old_y="1900.0" type="right_before_left" weight_num="4.0" weight_sum="0.0" x="88.64477618" x_displacement_sum="-111.35522382" y="2121.85194746" y_displacement_sum="221.851947462" />
    <node avg_slowdown_ratio="0.0" id="node_02x20" junction="True" old_x="200.0" old_y="2000.0" type="right_before_left" weight_num="3.0" weight_sum="0.0" x="112.692852415" x_displacement_sum="-87.3071475848" y="2313.72639508" y_displacement_sum="313.726395075" />
    <node avg_slowdown_ratio="0.0" id="node_03x00" junction="True" old_x="300.0" old_y="0.0" type="right_before_left" weight_num="3.0" weight_sum="0.0" x="254.749256397" x_displacement_sum="-45.2507436026" y="-332.879678127" y_displacement_sum="-332.879678127" />
    <node avg_slowdown_ratio="0.0" id="node_03x01" junction="True" old_x="300.0" old_y="100.0" type="right_before_left" weight_num="4.0" weight_sum="0.0" x="242.835567666" x_displacement_sum="-57.1644323339" y="-137.011678051" y_displacement_sum="-237.011678051" />
    <node avg_slowdown_ratio="0.0" id="node_03x02" junction="True" old_x="300.0" old_y="200.0" type="right_before_left" weight_num="4.0" weight_sum="0.0" x="233.873809845" x_displacement_sum="-66.1261901551" y="61.857086275" y_displacement_sum="-138.142913725" />
    <node avg_slowdown_ratio="0.0" id="node_03x03" junction="True" old_x="300.0" old_y="300.0" type="right_before_left" weight_num="4.0" weight_sum="0.0" x="227.891991054" x_displacement_sum="-72.1080089462" y="227.891991052" y_displacement_sum="-72.1080089478" />
    <node avg_slowdown_ratio="0.0" id="node_03x04" junction="True" old_x="300.0" old_y="400.0" type="right_before_left" weight_num="4.0" weight_sum="0.0" x="223.900601055" x_displacement_sum="-76.0993989447" y="364.134133559" y_displacement_sum="-35.865866441" />
    <node avg_slowdown_ratio="0.0" id="node_03x05" junction="True" old_x="300.0" old_y="500.0" type="right_before_left" weight_num="4.0" weight_sum="0.0" x="220.737529679" x_displacement_sum="-79.2624703209" y="481.785462911" y_displacement_sum="-18.2145370891" />
    <node avg_slowdown_ratio="0.0" id="node_03x06" junction="True" old_x="300.0" old_y="600.0" type="right_before_left" weight_num="4.0" weight_sum="0.0" x="217.525281767" x_displacement_sum="-82.4747182326" y="589.624261655" y_displacement_sum="-10.375738345" />
    <node avg_slowdown_ratio="0.0" id="node_03x07" junction="True" old_x="300.0" old_y="700.0" type="right_before_left" weight_num="4.0" weight_sum="0.0" x="213.897825103" x_displacement_sum="-86.1021748973" y="693.036372219" y_displacement_sum="-6.9636277807" />
    <node avg_slowdown_ratio="0.0" id="node_03x08" junction="True" old_x="300.0" old_y="800.0" type="right_before_left" weight_num="4.0" weight_sum="0.0" x="210.152244484" x_displacement_sum="-89.8477555155" y="795.090651167" y_displacement_sum="-4.90934883344" />
    <node avg_slowdown_ratio="0.0" id="node_03x09" junction="True" old_x="300.0" old_y="900.0" type="right_before_left" weight_num="4.0" weight_sum="0.0" x="207.190769737" x_displacement_sum="-92.8092302631" y="897.308978235" y_displacement_sum="-2.69102176478" />
    <node avg_slowdown_ratio="0.0" id="node_03x10" junction="True" old_x="300.0" old_y="1000.0" type="right_before_left" weight_num="4.0" weight_sum="0.0" x="206.049381875" x_displacement_sum="-93.950618125" y="1000.0" y_displacement_sum="1.27082132786e-11" />
    <node avg_slowdown_ratio="0.0" id="node_03x11" junction="True" old_x="300.0" old_y="1100.0" type="right_before_left" weight_num="4.0" weight_sum="0.0" x="207.190769736" x_displacement_sum="-92.8092302639" y="1102.69102176" y_displacement_sum="2.69102176461" />
    <node avg_slowdown_ratio="0.0" id="node_03x12" junction="True" old_x="300.0" old_y="1200.0" type="right_before_left" weight_num="4.0" weight_sum="0.0" x="210.152244484" x_displacement_sum="-89.8477555164" y="1204.90934883" y_displacement_sum="4.90934883342" />
    <node avg_slowdown_ratio="0.0" id="node_03x13" junction="True" old_x="300.0" old_y="1300.0" type="right_before_left" weight_num="4.0" weight_sum="0.0" x="213.897825101" x_displacement_sum="-86.1021748989" y="1306.96362778" y_displacement_sum="6.96362778065" />
    <node avg_slowdown_ratio="0.0" id="node_03x14" junction="True" old_x="300.0" old_y="1400.0" type="right_before_left" weight_num="4.0" weight_sum="0.0" x="217.525281765" x_displacement_sum="-82.4747182348" y="1410.37573835" y_displacement_sum="10.3757383451" />
    <node avg_slowdown_ratio="0.0" id="node_03x15" junction="True" old_x="300.0" old_y="1500.0" type="right_before_left" weight_num="4.0" weight_sum="0.0" x="220.737529677" x_displacement_sum="-79.2624703228" y="1518.21453709" y_displacement_sum="18.2145370892" />
    <node avg_slowdown_ratio="0.0" id="node_03x16" junction="True" old_x="300.0" old_y="1600.0" type="right_before_left" weight_num="4.0" weight_sum="0.0" x="223.900601054" x_displacement_sum="-76.0993989463" y="1635.86586644" y_displacement_sum="35.8658664411" />
    <node avg_slowdown_ratio="0.0" id="node_03x17" junction="True" old_x="300.0" old_y="1700.0" type="right_before_left" weight_num="4.0" weight_sum="0.0" x="227.891991052" x_displacement_sum="-72.1080089483" y="1772.10800895" y_displacement_sum="72.1080089474" />
    <node avg_slowdown_ratio="0.0" id="node_03x18" junction="True" old_x="300.0" old_y="1800.0" type="right_before_left" weight_num="4.0" weight_sum="0.0" x="233.873809841" x_displacement_sum="-66.1261901591" y="1938.14291372" y_displacement_sum="138.142913724" />
    <node avg_slowdown_ratio="0.0" id="node_03x19" junction="True" old_x="300.0" old_y="1900.0" type="right_before_left" weight_num="4.0" weight_sum="0.0" x="242.835567662" x_displacement_sum="-57.1644323376" y="2137.01167805" y_displacement_sum="237.011678052" />
    <node avg_slowdown_ratio="0.0" id="node_03x20" junction="True" old_x="300.0" old_y="2000.0" type="right_before_left" weight_num="3.0" weight_sum="0.0" x="254.749256394" x_displacement_sum="-45.2507436061" y="2332.87967813" y_displacement_sum="332.879678127" />
    <node avg_slowdown_ratio="0.0" id="node_04x00" junction="True" old_x="400.0" old_y="0.0" type="right_before_left" weight_num="3.0" weight_sum="0.0" x="378.030400596" x_displacement_sum="-21.9695994044" y="-341.908717231" y_displacement_sum="-341.908717231" />
    <node avg_slowdown_ratio="0.0" id="node_04x01" junction="True" old_x="400.0" old_y="100.0" type="right_before_left" weight_num="4.0" weight_sum="0.0" x="372.422612657" x_displacement_sum="-27.5773873435" y="-144.565256019" y_displacement_sum="-244.565256019" />
    <node avg_slowdown_ratio="0.0" id="node_04x02" junction="True" old_x="400.0" old_y="200.0" type="right_before_left" weight_num="4.0" weight_sum="0.0" x="367.814167854" x_displacement_sum="-32.1858321457" y="56.320426628" y_displacement_sum="-143.679573372" />
    <node avg_slowdown_ratio="0.0" id="node_04x03" junction="True" old_x="400.0" old_y="300.0" type="right_before_left" weight_num="4.0" weight_sum="0.0" x="364.13413356" x_displacement_sum="-35.8658664405" y="223.900601054" y_displacement_sum="-76.0993989455" />
    <node avg_slowdown_ratio="0.0" id="node_04x04" junction="True" old_x="400.0" old_y="400.0" type="right_before_left" weight_num="4.0" weight_sum="0.0" x="360.730311702" x_displacement_sum="-39.2696882977" y="360.730311702" y_displacement_sum="-39.2696882979" />
    <node avg_slowdown_ratio="0.0" id="node_04x05" junction="True" old_x="400.0" old_y="500.0" type="right_before_left" weight_num="4.0" weight_sum="0.0" x="356.645401834" x_displacement_sum="-43.3545981663" y="477.987827802" y_displacement_sum="-22.0121721982" />
    <node avg_slowdown_ratio="0.0" id="node_04x06" junction="True" old_x="400.0" old_y="600.0" type="right_before_left" weight_num="4.0" weight_sum="0.0" x="350.960976873" x_displacement_sum="-49.0390231269" y="584.780468973" y_displacement_sum="-15.2195310265" />
    <node avg_slowdown_ratio="0.0" id="node_04x07" junction="True" old_x="400.0" old_y="700.0" type="right_before_left" weight_num="4.0" weight_sum="0.0" x="343.343022959" x_displacement_sum="-56.6569770412" y="687.230335909" y_displacement_sum="-12.7696640906" />
    <node avg_slowdown_ratio="0.0" id="node_04x08" junction="True" old_x="400.0" old_y="800.0" type="right_before_left" weight_num="4.0" weight_sum="0.0" x="334.747226354" x_displacement_sum="-65.2527736459" y="789.458487948" y_displacement_sum="-10.5415120524" />
    <node avg_slowdown_ratio="0.0" id="node_04x09" junction="True" old_x="400.0" old_y="900.0" type="right_before_left" weight_num="4.0" weight_sum="0.0" x="327.624746871" x_displacement_sum="-72.3752531293" y="893.737720624" y_displacement_sum="-6.26227937604" />
    <node avg_slowdown_ratio="0.0" id="node_04x10" junction="True" old_x="400.0" old_y="1000.0" type="right_before_left" weight_num="4.0" weight_sum="0.0" x="324.822272442" x_displacement_sum="-75.1777275579" y="1000.0" y_displacement_sum="1.27081727277e-11" />
    <node avg_slowdown_ratio="0.0" id="node_04x11" junction="True" old_x="400.0" old_y="1100.0" type="right_before_left" weight_num="4.0" weight_sum="0.0" x="327.624746869" x_displacement_sum="-72.3752531312" y="1106.26227938" y_displacement_sum="6.26227937615" />
    <node avg_slowdown_ratio="0.0" id="node_04x12" junction="True" old_x="400.0" old_y="1200.0" type="right_before_left" weight_num="4.0" weight_sum="0.0" x="334.747226352" x_displacement_sum="-65.2527736478" y="1210.54151205" y_displacement_sum="10.5415120524" />
    <node avg_slowdown_ratio="0.0" id="node_04x13" junction="True" old_x="400.0" old_y="1300.0" type="right_before_left" weight_num="4.0" weight_sum="0.0" x="343.343022958" x_displacement_sum="-56.6569770418" y="1312.76966409" y_displacement_sum="12.7696640907" />
    <node avg_slowdown_ratio="0.0" id="node_04x14" junction="True" old_x="400.0" old_y="1400.0" type="right_before_left" weight_num="4.0" weight_sum="0.0" x="350.960976871" x_displacement_sum="-49.0390231291" y="1415.21953103" y_displacement_sum="15.2195310266" />
    <node avg_slowdown_ratio="0.0" id="node_04x15" junction="True" old_x="400.0" old_y="1500.0" type="right_before_left" weight_num="4.0" weight_sum="0.0" x="356.645401835" x_displacement_sum="-43.3545981648" y="1522.0121722" y_displacement_sum="22.0121721981" />
    <node avg_slowdown_ratio="0.0" id="node_04x16" junction="True" old_x="400.0" old_y="1600.0" type="right_before_left" weight_num="4.0" weight_sum="0.0" x="360.730311702" x_displacement_sum="-39.269688298" y="1639.2696883" y_displacement_sum="39.269688298" />
    <node avg_slowdown_ratio="0.0" id="node_04x17" junction="True" old_x="400.0" old_y="1700.0" type="right_before_left" weight_num="4.0" weight_sum="0.0" x="364.134133558" x_displacement_sum="-35.8658664418" y="1776.09939894" y_displacement_sum="76.0993989449" />
    <node avg_slowdown_ratio="0.0" id="node_04x18" junction="True" old_x="400.0" old_y="1800.0" type="right_before_left" weight_num="4.0" weight_sum="0.0" x="367.81416785" x_displacement_sum="-32.1858321496" y="1943.67957337" y_displacement_sum="143.679573372" />
    <node avg_slowdown_ratio="0.0" id="node_04x19" junction="True" old_x="400.0" old_y="1900.0" type="right_before_left" weight_num="4.0" weight_sum="0.0" x="372.422612653" x_displacement_sum="-27.5773873472" y="2144.56525602" y_displacement_sum="244.565256019" />
    <node avg_slowdown_ratio="0.0" id="node_04x20" junction="True" old_x="400.0" old_y="2000.0" type="right_before_left" weight_num="3.0" weight_sum="0.0" x="378.030400592" x_displacement_sum="-21.9695994078" y="2341.90871723" y_displacement_sum="341.90871723" />
    <node avg_slowdown_ratio="0.0" id="node_05x00" junction="True" old_x="500.0" old_y="0.0" type="right_before_left" weight_num="3.0" weight_sum="0.0" x="489.721121928" x_displacement_sum="-10.2788780721" y="-346.026388181" y_displacement_sum="-346.026388181" />
    <node avg_slowdown_ratio="0.0" id="node_05x01" junction="True" old_x="500.0" old_y="100.0" type="right_before_left" weight_num="4.0" weight_sum="0.0" x="487.06421375" x_displacement_sum="-12.9357862498" y="-148.265453658" y_displacement_sum="-248.265453658" />
    <node avg_slowdown_ratio="0.0" id="node_05x02" junction="True" old_x="500.0" old_y="200.0" type="right_before_left" weight_num="4.0" weight_sum="0.0" x="484.525733841" x_displacement_sum="-15.4742661589" y="53.121707384" y_displacement_sum="-146.878292616" />
    <node avg_slowdown_ratio="0.0" id="node_05x03" junction="True" old_x="500.0" old_y="300.0" type="right_before_left" weight_num="4.0" weight_sum="0.0" x="481.785462911" x_displacement_sum="-18.2145370888" y="220.737529678" y_displacement_sum="-79.2624703217" />
    <node avg_slowdown_ratio="0.0" id="node_05x04" junction="True" old_x="500.0" old_y="400.0" type="right_before_left" weight_num="4.0" weight_sum="0.0" x="477.987827802" x_displacement_sum="-22.0121721984" y="356.645401835" y_displacement_sum="-43.3545981654" />
    <node avg_slowdown_ratio="0.0" id="node_05x05" junction="True" old_x="500.0" old_y="500.0" type="right_before_left" weight_num="4.0" weight_sum="0.0" x="471.71603116" x_displacement_sum="-28.28396884" y="471.716031161" y_displacement_sum="-28.2839688392" />
    <node avg_slowdown_ratio="0.0" id="node_05x06" junction="True" old_x="500.0" old_y="600.0" type="right_before_left" weight_num="4.0" weight_sum="0.0" x="461.304545888" x_displacement_sum="-38.6954541118" y="575.268663269" y_displacement_sum="-24.7313367307" />
    <node avg_slowdown_ratio="0.0" id="node_05x07" junction="True" old_x="500.0" old_y="700.0" type="right_before_left" weight_num="4.0" weight_sum="0.0" x="445.991154217" x_displacement_sum="-54.0088457829" y="674.752038187" y_displacement_sum="-25.2479618127" />
    <node avg_slowdown_ratio="0.0" id="node_05x08" junction="True" old_x="500.0" old_y="800.0" type="right_before_left" weight_num="4.0" weight_sum="0.0" x="427.836184503" x_displacement_sum="-72.1638154971" y="776.759594701" y_displacement_sum="-23.2404052992" />
    <node avg_slowdown_ratio="0.0" id="node_05x09" junction="True" old_x="500.0" old_y="900.0" type="right_before_left" weight_num="4.0" weight_sum="0.0" x="412.462650742" x_displacement_sum="-87.5373492581" y="885.505407438" y_displacement_sum="-14.4945925619" />
    <node avg_slowdown_ratio="0.0" id="node_05x10" junction="True" old_x="500.0" old_y="1000.0" type="right_before_left" weight_num="4.0" weight_sum="0.0" x="406.377138131" x_displacement_sum="-93.6228618688" y="1000.0" y_displacement_sum="1.27082131897e-11" />
    <node avg_slowdown_ratio="0.0" id="node_05x11" junction="True" old_x="500.0" old_y="1100.0" type="right_before_left" weight_num="4.0" weight_sum="0.0" x="412.46265074" x_displacement_sum="-87.5373492599" y="1114.49459256" y_displacement_sum="14.4945925618" />
    <node avg_slowdown_ratio="0.0" id="node_05x12" junction="True" old_x="500.0" old_y="1200.0" type="right_before_left" weight_num="4.0" weight_sum="0.0" x="427.836184501" x_displacement_sum="-72.1638154991" y="1223.2404053" y_displacement_sum="23.2404052988" />
    <node avg_slowdown_ratio="0.0" id="node_05x13" junction="True" old_x="500.0" old_y="1300.0" type="right_before_left" weight_num="4.0" weight_sum="0.0" x="445.991154216" x_displacement_sum="-54.0088457835" y="1325.24796181" y_displacement_sum="25.2479618123" />
    <node avg_slowdown_ratio="0.0" id="node_05x14" junction="True" old_x="500.0" old_y="1400.0" type="right_before_left" weight_num="4.0" weight_sum="0.0" x="461.304545891" x_displacement_sum="-38.6954541088" y="1424.73133673" y_displacement_sum="24.7313367307" />
    <node avg_slowdown_ratio="0.0" id="node_05x15" junction="True" old_x="500.0" old_y="1500.0" type="right_before_left" weight_num="4.0" weight_sum="0.0" x="471.716031161" x_displacement_sum="-28.2839688385" y="1528.28396884" y_displacement_sum="28.2839688392" />
    <node avg_slowdown_ratio="0.0" id="node_05x16" junction="True" old_x="500.0" old_y="1600.0" type="right_before_left" weight_num="4.0" weight_sum="0.0" x="477.987827802" x_displacement_sum="-22.0121721983" y="1643.35459817" y_displacement_sum="43.3545981654" />
    <node avg_slowdown_ratio="0.0" id="node_05x17" junction="True" old_x="500.0" old_y="1700.0" type="right_before_left" weight_num="4.0" weight_sum="0.0" x="481.785462911" x_displacement_sum="-18.2145370888" y="1779.26247032" y_displacement_sum="79.2624703214" />
    <node avg_slowdown_ratio="0.0" id="node_05x18" junction="True" old_x="500.0" old_y="1800.0" type="right_before_left" weight_num="4.0" weight_sum="0.0" x="484.525733841" x_displacement_sum="-15.4742661587" y="1946.87829262" y_displacement_sum="146.878292616" />
    <node avg_slowdown_ratio="0.0" id="node_05x19" junction="True" old_x="500.0" old_y="1900.0" type="right_before_left" weight_num="4.0" weight_sum="0.0" x="487.064213746" x_displacement_sum="-12.9357862536" y="2148.26545366" y_displacement_sum="248.265453658" />
    <node avg_slowdown_ratio="0.0" id="node_05x20" junction="True" old_x="500.0" old_y="2000.0" type="right_before_left" weight_num="3.0" weight_sum="0.0" x="489.721121926" x_displacement_sum="-10.2788780742" y="2346.02638818" y_displacement_sum="346.02638818" />
    <node avg_slowdown_ratio="0.0" id="node_06x00" junction="True" old_x="600.0" old_y="0.0" type="right_before_left" weight_num="3.0" weight_sum="0.0" x="595.256664389" x_displacement_sum="-4.74333561126" y="-347.92897685" y_displacement_sum="-347.92897685" />
    <node avg_slowdown_ratio="0.0" id="node_06x01" junction="True" old_x="600.0" old_y="100.0" type="right_before_left" weight_num="4.0" weight_sum="0.0" x="593.890931093" x_displacement_sum="-6.10906890675" y="-150.211066528" y_displacement_sum="-250.211066528" />
    <node avg_slowdown_ratio="0.0" id="node_06x02" junction="True" old_x="600.0" old_y="200.0" type="right_before_left" weight_num="4.0" weight_sum="0.0" x="592.212828243" x_displacement_sum="-7.78717175694" y="50.910053405" y_displacement_sum="-149.089946595" />
    <node avg_slowdown_ratio="0.0" id="node_06x03" junction="True" old_x="600.0" old_y="300.0" type="right_before_left" weight_num="4.0" weight_sum="0.0" x="589.624261656" x_displacement_sum="-10.3757383445" y="217.525281767" y_displacement_sum="-82.4747182335" />
    <node avg_slowdown_ratio="0.0" id="node_06x04" junction="True" old_x="600.0" old_y="400.0" type="right_before_left" weight_num="4.0" weight_sum="0.0" x="584.780468974" x_displacement_sum="-15.2195310262" y="350.960976872" y_displacement_sum="-49.0390231284" />
    <node avg_slowdown_ratio="0.0" id="node_06x05" junction="True" old_x="600.0" old_y="500.0" type="right_before_left" weight_num="4.0" weight_sum="0.0" x="575.268663269" x_displacement_sum="-24.7313367311" y="461.30454589" y_displacement_sum="-38.6954541103" />
    <node avg_slowdown_ratio="0.0" id="node_06x06" junction="True" old_x="600.0" old_y="600.0" type="right_before_left" weight_num="4.0" weight_sum="0.0" x="557.942877028" x_displacement_sum="-42.0571229722" y="557.942877029" y_displacement_sum="-42.0571229706" />
    <node avg_slowdown_ratio="0.0" id="node_06x07" junction="True" old_x="600.0" old_y="700.0" type="right_before_left" weight_num="4.0" weight_sum="0.0" x="531.299232165" x_displacement_sum="-68.7007678353" y="650.97324964" y_displacement_sum="-49.0267503602" />
    <node avg_slowdown_ratio="0.0" id="node_06x08" junction="True" old_x="600.0" old_y="800.0" type="right_before_left" weight_num="4.0" weight_sum="0.0" x="499.649440996" x_displacement_sum="-100.350559004" y="752.350949597" y_displacement_sum="-47.6490504025" />
    <node avg_slowdown_ratio="0.0" id="node_06x09" junction="True" old_x="600.0" old_y="900.0" type="right_before_left" weight_num="4.0" weight_sum="0.0" x="473.628211932" x_displacement_sum="-126.371788068" y="869.872687708" y_displacement_sum="-30.1273122919" />
    <node avg_slowdown_ratio="0.0" id="node_06x10" junction="True" old_x="600.0" old_y="1000.0" type="right_before_left" weight_num="4.0" weight_sum="0.0" x="463.636015611" x_displacement_sum="-136.363984389" y="1000.0" y_displacement_sum="1.27076642395e-11" />
    <node avg_slowdown_ratio="0.0" id="node_06x11" junction="True" old_x="600.0" old_y="1100.0" type="right_before_left" weight_num="4.0" weight_sum="0.0" x="473.62821193" x_displacement_sum="-126.37178807" y="1130.12731229" y_displacement_sum="30.1273122922" />
    <node avg_slowdown_ratio="0.0" id="node_06x12" junction="True" old_x="600.0" old_y="1200.0" type="right_before_left" weight_num="4.0" weight_sum="0.0" x="499.649440994" x_displacement_sum="-100.350559006" y="1247.6490504" y_displacement_sum="47.6490504025" />
    <node avg_slowdown_ratio="0.0" id="node_06x13" junction="True" old_x="600.0" old_y="1300.0" type="right_before_left" weight_num="4.0" weight_sum="0.0" x="531.299232163" x_displacement_sum="-68.7007678369" y="1349.02675036" y_displacement_sum="49.026750361" />
    <node avg_slowdown_ratio="0.0" id="node_06x14" junction="True" old_x="600.0" old_y="1400.0" type="right_before_left" weight_num="4.0" weight_sum="0.0" x="557.942877031" x_displacement_sum="-42.057122969" y="1442.05712297" y_displacement_sum="42.0571229709" />
    <node avg_slowdown_ratio="0.0" id="node_06x15" junction="True" old_x="600.0" old_y="1500.0" type="right_before_left" weight_num="4.0" weight_sum="0.0" x="575.26866327" x_displacement_sum="-24.7313367304" y="1538.69545411" y_displacement_sum="38.6954541105" />
    <node avg_slowdown_ratio="0.0" id="node_06x16" junction="True" old_x="600.0" old_y="1600.0" type="right_before_left" weight_num="4.0" weight_sum="0.0" x="584.780468974" x_displacement_sum="-15.2195310261" y="1649.03902313" y_displacement_sum="49.0390231286" />
    <node avg_slowdown_ratio="0.0" id="node_06x17" junction="True" old_x="600.0" old_y="1700.0" type="right_before_left" weight_num="4.0" weight_sum="0.0" x="589.624261654" x_displacement_sum="-10.3757383455" y="1782.47471823" y_displacement_sum="82.4747182331" />
    <node avg_slowdown_ratio="0.0" id="node_06x18" junction="True" old_x="600.0" old_y="1800.0" type="right_before_left" weight_num="4.0" weight_sum="0.0" x="592.212828245" x_displacement_sum="-7.78717175547" y="1949.08994659" y_displacement_sum="149.089946594" />
    <node avg_slowdown_ratio="0.0" id="node_06x19" junction="True" old_x="600.0" old_y="1900.0" type="right_before_left" weight_num="4.0" weight_sum="0.0" x="593.890931095" x_displacement_sum="-6.10906890505" y="2150.21106653" y_displacement_sum="250.211066528" />
    <node avg_slowdown_ratio="0.0" id="node_06x20" junction="True" old_x="600.0" old_y="2000.0" type="right_before_left" weight_num="3.0" weight_sum="0.0" x="595.256664386" x_displacement_sum="-4.74333561377" y="2347.92897685" y_displacement_sum="347.928976849" />
    <node avg_slowdown_ratio="0.0" id="node_07x00" junction="True" old_x="700.0" old_y="0.0" type="right_before_left" weight_num="3.0" weight_sum="0.0" x="697.796053793" x_displacement_sum="-2.20394620678" y="-348.870893078" y_displacement_sum="-348.870893078" />
    <node avg_slowdown_ratio="0.0" id="node_07x01" junction="True" old_x="700.0" old_y="100.0" type="right_before_left" weight_num="4.0" weight_sum="0.0" x="696.991667671" x_displacement_sum="-3.00833232854" y="-151.40452076" y_displacement_sum="-251.40452076" />
    <node avg_slowdown_ratio="0.0" id="node_07x02" junction="True" old_x="700.0" old_y="200.0" type="right_before_left" weight_num="4.0" weight_sum="0.0" x="695.675719189" x_displacement_sum="-4.32428081077" y="49.03725412" y_displacement_sum="-150.96274588" />
    <node avg_slowdown_ratio="0.0" id="node_07x03" junction="True" old_x="700.0" old_y="300.0" type="right_before_left" weight_num="4.0" weight_sum="0.0" x="693.03637222" x_displacement_sum="-6.96362778001" y="213.897825102" y_displacement_sum="-86.1021748977" />
    <node avg_slowdown_ratio="0.0" id="node_07x04" junction="True" old_x="700.0" old_y="400.0" type="right_before_left" weight_num="4.0" weight_sum="0.0" x="687.230335909" x_displacement_sum="-12.7696640909" y="343.343022958" y_displacement_sum="-56.6569770416" />
    <node avg_slowdown_ratio="0.0" id="node_07x05" junction="True" old_x="700.0" old_y="500.0" type="right_before_left" weight_num="4.0" weight_sum="0.0" x="674.752038186" x_displacement_sum="-25.2479618137" y="445.991154217" y_displacement_sum="-54.0088457833" />
    <node avg_slowdown_ratio="0.0" id="node_07x06" junction="True" old_x="700.0" old_y="600.0" type="right_before_left" weight_num="4.0" weight_sum="0.0" x="650.973249641" x_displacement_sum="-49.0267503588" y="531.299232164" y_displacement_sum="-68.7007678362" />
    <node avg_slowdown_ratio="0.0" id="node_07x07" junction="True" old_x="700.0" old_y="700.0" type="right_before_left" weight_num="4.0" weight_sum="0.0" x="614.710915546" x_displacement_sum="-85.2890844541" y="614.710915545" y_displacement_sum="-85.2890844547" />
    <node avg_slowdown_ratio="0.0" id="node_07x08" junction="True" old_x="700.0" old_y="800.0" type="right_before_left" weight_num="4.0" weight_sum="0.0" x="574.820188697" x_displacement_sum="-125.179811303" y="717.409048301" y_displacement_sum="-82.5909516991" />
    <node avg_slowdown_ratio="0.0" id="node_07x09" junction="True" old_x="700.0" old_y="900.0" type="right_before_left" weight_num="4.0" weight_sum="0.0" x="545.969531602" x_displacement_sum="-154.030468398" y="849.290986484" y_displacement_sum="-50.7090135164" />
    <node avg_slowdown_ratio="0.0" id="node_07x10" junction="True" old_x="700.0" old_y="1000.0" type="right_before_left" weight_num="4.0" weight_sum="0.0" x="536.037455145" x_displacement_sum="-163.962544855" y="1000.0" y_displacement_sum="1.27090562466e-11" />
    <node avg_slowdown_ratio="0.0" id="node_07x11" junction="True" old_x="700.0" old_y="1100.0" type="right_before_left" weight_num="4.0" weight_sum="0.0" x="545.969531601" x_displacement_sum="-154.030468399" y="1150.70901352" y_displacement_sum="50.7090135156" />
    <node avg_slowdown_ratio="0.0" id="node_07x12" junction="True" old_x="700.0" old_y="1200.0" type="right_before_left" weight_num="4.0" weight_sum="0.0" x="574.820188695" x_displacement_sum="-125.179811305" y="1282.5909517" y_displacement_sum="82.5909516992" />
    <node avg_slowdown_ratio="0.0" id="node_07x13" junction="True" old_x="700.0" old_y="1300.0" type="right_before_left" weight_num="4.0" weight_sum="0.0" x="614.710915545" x_displacement_sum="-85.2890844547" y="1385.28908446" y_displacement_sum="85.2890844558" />
    <node avg_slowdown_ratio="0.0" id="node_07x14" junction="True" old_x="700.0" old_y="1400.0" type="right_before_left" weight_num="4.0" weight_sum="0.0" x="650.973249639" x_displacement_sum="-49.026750361" y="1468.70076784" y_displacement_sum="68.7007678357" />
    <node avg_slowdown_ratio="0.0" id="node_07x15" junction="True" old_x="700.0" old_y="1500.0" type="right_before_left" weight_num="4.0" weight_sum="0.0" x="674.752038188" x_displacement_sum="-25.2479618116" y="1554.00884578" y_displacement_sum="54.0088457829" />
    <node avg_slowdown_ratio="0.0" id="node_07x16" junction="True" old_x="700.0" old_y="1600.0" type="right_before_left" weight_num="4.0" weight_sum="0.0" x="687.23033591" x_displacement_sum="-12.7696640904" y="1656.65697704" y_displacement_sum="56.6569770422" />
    <node avg_slowdown_ratio="0.0" id="node_07x17" junction="True" old_x="700.0" old_y="1700.0" type="right_before_left" weight_num="4.0" weight_sum="0.0" x="693.036372219" x_displacement_sum="-6.96362778113" y="1786.1021749" y_displacement_sum="86.1021748972" />
    <node avg_slowdown_ratio="0.0" id="node_07x18" junction="True" old_x="700.0" old_y="1800.0" type="right_before_left" weight_num="4.0" weight_sum="0.0" x="695.675719189" x_displacement_sum="-4.32428081052" y="1950.96274588" y_displacement_sum="150.962745879" />
    <node avg_slowdown_ratio="0.0" id="node_07x19" junction="True" old_x="700.0" old_y="1900.0" type="right_before_left" weight_num="4.0" weight_sum="0.0" x="696.991667673" x_displacement_sum="-3.00833232696" y="2151.40452076" y_displacement_sum="251.404520759" />
    <node avg_slowdown_ratio="0.0" id="node_07x20" junction="True" old_x="700.0" old_y="2000.0" type="right_before_left" weight_num="3.0" weight_sum="0.0" x="697.796053791" x_displacement_sum="-2.20394620929" y="2348.87089308" y_displacement_sum="348.870893078" />
    <node avg_slowdown_ratio="0.0" id="node_08x00" junction="True" old_x="800.0" old_y="0.0" type="right_before_left" weight_num="3.0" weight_sum="0.0" x="798.975130083" x_displacement_sum="-1.02486991676" y="-349.38282678" y_displacement_sum="-349.38282678" />
    <node avg_slowdown_ratio="0.0" id="node_08x01" junction="True" old_x="800.0" old_y="100.0" type="right_before_left" weight_num="4.0" weight_sum="0.0" x="798.469481508" x_displacement_sum="-1.53051849228" y="-152.231240025" y_displacement_sum="-252.231240025" />
    <node avg_slowdown_ratio="0.0" id="node_08x02" junction="True" old_x="800.0" old_y="200.0" type="right_before_left" weight_num="4.0" weight_sum="0.0" x="797.449192584" x_displacement_sum="-2.55080741631" y="47.384365874" y_displacement_sum="-152.615634126" />
    <node avg_slowdown_ratio="0.0" id="node_08x03" junction="True" old_x="800.0" old_y="300.0" type="right_before_left" weight_num="4.0" weight_sum="0.0" x="795.090651167" x_displacement_sum="-4.90934883303" y="210.152244484" y_displacement_sum="-89.847755516" />
    <node avg_slowdown_ratio="0.0" id="node_08x04" junction="True" old_x="800.0" old_y="400.0" type="right_before_left" weight_num="4.0" weight_sum="0.0" x="789.458487947" x_displacement_sum="-10.5415120528" y="334.747226353" y_displacement_sum="-65.252773647" />
    <node avg_slowdown_ratio="0.0" id="node_08x05" junction="True" old_x="800.0" old_y="500.0" type="right_before_left" weight_num="4.0" weight_sum="0.0" x="776.7595947" x_displacement_sum="-23.2404052997" y="427.836184502" y_displacement_sum="-72.1638154976" />
    <node avg_slowdown_ratio="0.0" id="node_08x06" junction="True" old_x="800.0" old_y="600.0" type="right_before_left" weight_num="4.0" weight_sum="0.0" x="752.350949599" x_displacement_sum="-47.6490504012" y="499.649440995" y_displacement_sum="-100.350559005" />
    <node avg_slowdown_ratio="0.0" id="node_08x07" junction="True" old_x="800.0" old_y="700.0" type="right_before_left" weight_num="4.0" weight_sum="0.0" x="717.409048301" x_displacement_sum="-82.5909516988" y="574.820188697" y_displacement_sum="-125.179811303" />
    <node avg_slowdown_ratio="0.0" id="node_08x08" junction="True" old_x="800.0" old_y="800.0" type="right_before_left" weight_num="4.0" weight_sum="0.0" x="685.018608922" x_displacement_sum="-114.981391078" y="685.018608921" y_displacement_sum="-114.981391079" />
    <node avg_slowdown_ratio="0.0" id="node_08x09" junction="True" old_x="800.0" old_y="900.0" type="right_before_left" weight_num="4.0" weight_sum="0.0" x="667.930073067" x_displacement_sum="-132.069926933" y="834.168592193" y_displacement_sum="-65.831407807" />
    <node avg_slowdown_ratio="0.0" id="node_08x10" junction="True" old_x="800.0" old_y="1000.0" type="right_before_left" weight_num="4.0" weight_sum="0.0" x="664.125579087" x_displacement_sum="-135.874420913" y="1000.0" y_displacement_sum="1.27133675224e-11" />
    <node avg_slowdown_ratio="0.0" id="node_08x11" junction="True" old_x="800.0" old_y="1100.0" type="right_before_left" weight_num="4.0" weight_sum="0.0" x="667.930073065" x_displacement_sum="-132.069926935" y="1165.83140781" y_displacement_sum="65.8314078065" />
    <node avg_slowdown_ratio="0.0" id="node_08x12" junction="True" old_x="800.0" old_y="1200.0" type="right_before_left" weight_num="4.0" weight_sum="0.0" x="685.018608919" x_displacement_sum="-114.981391081" y="1314.98139108" y_displacement_sum="114.981391079" />
    <node avg_slowdown_ratio="0.0" id="node_08x13" junction="True" old_x="800.0" old_y="1300.0" type="right_before_left" weight_num="4.0" weight_sum="0.0" x="717.409048301" x_displacement_sum="-82.5909516988" y="1425.1798113" y_displacement_sum="125.179811303" />
    <node avg_slowdown_ratio="0.0" id="node_08x14" junction="True" old_x="800.0" old_y="1400.0" type="right_before_left" weight_num="4.0" weight_sum="0.0" x="752.350949597" x_displacement_sum="-47.649050403" y="1500.350559" y_displacement_sum="100.350559005" />
    <node avg_slowdown_ratio="0.0" id="node_08x15" junction="True" old_x="800.0" old_y="1500.0" type="right_before_left" weight_num="4.0" weight_sum="0.0" x="776.759594701" x_displacement_sum="-23.240405299" y="1572.1638155" y_displacement_sum="72.1638154977" />
    <node avg_slowdown_ratio="0.0" id="node_08x16" junction="True" old_x="800.0" old_y="1600.0" type="right_before_left" weight_num="4.0" weight_sum="0.0" x="789.458487947" x_displacement_sum="-10.5415120528" y="1665.25277365" y_displacement_sum="65.2527736476" />
    <node avg_slowdown_ratio="0.0" id="node_08x17" junction="True" old_x="800.0" old_y="1700.0" type="right_before_left" weight_num="4.0" weight_sum="0.0" x="795.090651167" x_displacement_sum="-4.90934883305" y="1789.84775552" y_displacement_sum="89.8477555162" />
    <node avg_slowdown_ratio="0.0" id="node_08x18" junction="True" old_x="800.0" old_y="1800.0" type="right_before_left" weight_num="4.0" weight_sum="0.0" x="797.449192584" x_displacement_sum="-2.55080741593" y="1952.61563413" y_displacement_sum="152.615634125" />
    <node avg_slowdown_ratio="0.0" id="node_08x19" junction="True" old_x="800.0" old_y="1900.0" type="right_before_left" weight_num="4.0" weight_sum="0.0" x="798.469481509" x_displacement_sum="-1.5305184906" y="2152.23124002" y_displacement_sum="252.231240023" />
    <node avg_slowdown_ratio="0.0" id="node_08x20" junction="True" old_x="800.0" old_y="2000.0" type="right_before_left" weight_num="3.0" weight_sum="0.0" x="798.97513008" x_displacement_sum="-1.02486991988" y="2349.38282678" y_displacement_sum="349.382826779" />
    <node avg_slowdown_ratio="0.0" id="node_09x00" junction="True" old_x="900.0" old_y="0.0" type="right_before_left" weight_num="3.0" weight_sum="0.0" x="899.586214426" x_displacement_sum="-0.413785573578" y="-349.657542066" y_displacement_sum="-349.657542066" />
    <node avg_slowdown_ratio="0.0" id="node_09x01" junction="True" old_x="900.0" old_y="100.0" type="right_before_left" weight_num="4.0" weight_sum="0.0" x="899.327668685" x_displacement_sum="-0.672331314985" y="-152.761628641" y_displacement_sum="-252.761628641" />
    <node avg_slowdown_ratio="0.0" id="node_09x02" junction="True" old_x="900.0" old_y="200.0" type="right_before_left" weight_num="4.0" weight_sum="0.0" x="898.745696139" x_displacement_sum="-1.25430386113" y="46.174244899" y_displacement_sum="-153.825755101" />
    <node avg_slowdown_ratio="0.0" id="node_09x03" junction="True" old_x="900.0" old_y="300.0" type="right_before_left" weight_num="4.0" weight_sum="0.0" x="897.308978235" x_displacement_sum="-2.6910217652" y="207.190769736" y_displacement_sum="-92.8092302636" />
    <node avg_slowdown_ratio="0.0" id="node_09x04" junction="True" old_x="900.0" old_y="400.0" type="right_before_left" weight_num="4.0" weight_sum="0.0" x="893.737720624" x_displacement_sum="-6.26227937624" y="327.62474687" y_displacement_sum="-72.3752531302" />
    <node avg_slowdown_ratio="0.0" id="node_09x05" junction="True" old_x="900.0" old_y="500.0" type="right_before_left" weight_num="4.0" weight_sum="0.0" x="885.505407438" x_displacement_sum="-14.4945925621" y="412.462650741" y_displacement_sum="-87.5373492591" />
    <node avg_slowdown_ratio="0.0" id="node_09x06" junction="True" old_x="900.0" old_y="600.0" type="right_before_left" weight_num="4.0" weight_sum="0.0" x="869.872687707" x_displacement_sum="-30.1273122933" y="473.628211931" y_displacement_sum="-126.371788069" />
    <node avg_slowdown_ratio="0.0" id="node_09x07" junction="True" old_x="900.0" old_y="700.0" type="right_before_left" weight_num="4.0" weight_sum="0.0" x="849.290986483" x_displacement_sum="-50.7090135165" y="545.969531601" y_displacement_sum="-154.030468399" />
    <node avg_slowdown_ratio="0.0" id="node_09x08" junction="True" old_x="900.0" old_y="800.0" type="right_before_left" weight_num="4.0" weight_sum="0.0" x="834.168592195" x_displacement_sum="-65.8314078051" y="667.930073067" y_displacement_sum="-132.069926933" />
    <node avg_slowdown_ratio="0.0" id="node_09x09" junction="True" old_x="900.0" old_y="900.0" type="right_before_left" weight_num="4.0" weight_sum="0.0" x="831.833033797" x_displacement_sum="-68.1669662027" y="831.833033797" y_displacement_sum="-68.1669662033" />
    <node avg_slowdown_ratio="0.0" id="node_09x10" junction="True" old_x="900.0" old_y="1000.0" type="right_before_left" weight_num="4.0" weight_sum="0.0" x="835.211295972" x_displacement_sum="-64.7887040282" y="1000.0" y_displacement_sum="1.27081719713e-11" />
    <node avg_slowdown_ratio="0.0" id="node_09x11" junction="True" old_x="900.0" old_y="1100.0" type="right_before_left" weight_num="4.0" weight_sum="0.0" x="831.833033796" x_displacement_sum="-68.1669662035" y="1168.1669662" y_displacement_sum="68.1669662023" />
    <node avg_slowdown_ratio="0.0" id="node_09x12" junction="True" old_x="900.0" old_y="1200.0" type="right_before_left" weight_num="4.0" weight_sum="0.0" x="834.168592193" x_displacement_sum="-65.831407807" y="1332.06992693" y_displacement_sum="132.069926933" />
    <node avg_slowdown_ratio="0.0" id="node_09x13" junction="True" old_x="900.0" old_y="1300.0" type="right_before_left" weight_num="4.0" weight_sum="0.0" x="849.290986483" x_displacement_sum="-50.7090135171" y="1454.0304684" y_displacement_sum="154.030468399" />
    <node avg_slowdown_ratio="0.0" id="node_09x14" junction="True" old_x="900.0" old_y="1400.0" type="right_before_left" weight_num="4.0" weight_sum="0.0" x="869.87268771" x_displacement_sum="-30.1273122902" y="1526.37178807" y_displacement_sum="126.371788069" />
    <node avg_slowdown_ratio="0.0" id="node_09x15" junction="True" old_x="900.0" old_y="1500.0" type="right_before_left" weight_num="4.0" weight_sum="0.0" x="885.505407438" x_displacement_sum="-14.4945925616" y="1587.53734926" y_displacement_sum="87.537349259" />
    <node avg_slowdown_ratio="0.0" id="node_09x16" junction="True" old_x="900.0" old_y="1600.0" type="right_before_left" weight_num="4.0" weight_sum="0.0" x="893.737720624" x_displacement_sum="-6.26227937627" y="1672.37525313" y_displacement_sum="72.3752531305" />
    <node avg_slowdown_ratio="0.0" id="node_09x17" junction="True" old_x="900.0" old_y="1700.0" type="right_before_left" weight_num="4.0" weight_sum="0.0" x="897.308978235" x_displacement_sum="-2.6910217652" y="1792.80923026" y_displacement_sum="92.8092302638" />
    <node avg_slowdown_ratio="0.0" id="node_09x18" junction="True" old_x="900.0" old_y="1800.0" type="right_before_left" weight_num="4.0" weight_sum="0.0" x="898.745696139" x_displacement_sum="-1.25430386073" y="1953.8257551" y_displacement_sum="153.8257551" />
    <node avg_slowdown_ratio="0.0" id="node_09x19" junction="True" old_x="900.0" old_y="1900.0" type="right_before_left" weight_num="4.0" weight_sum="0.0" x="899.327668687" x_displacement_sum="-0.672331313275" y="2152.76162864" y_displacement_sum="252.76162864" />
    <node avg_slowdown_ratio="0.0" id="node_09x20" junction="True" old_x="900.0" old_y="2000.0" type="right_before_left" weight_num="3.0" weight_sum="0.0" x="899.586214423" x_displacement_sum="-0.413785577088" y="2349.65754207" y_displacement_sum="349.657542065" />
    <node avg_slowdown_ratio="0.0" id="node_10x00" junction="True" old_x="1000.0" old_y="0.0" type="right_before_left" weight_num="3.0" weight_sum="0.0" x="1000.0" x_displacement_sum="1.36611153271e-09" y="-349.7467077" y_displacement_sum="-349.7467077" />
    <node avg_slowdown_ratio="0.0" id="node_10x01" junction="True" old_x="1000.0" old_y="100.0" type="right_before_left" weight_num="4.0" weight_sum="0.0" x="999.999999999" x_displacement_sum="-9.02458306569e-10" y="-152.949084022" y_displacement_sum="-252.949084022" />
    <node avg_slowdown_ratio="0.0" id="node_10x02" junction="True" old_x="1000.0" old_y="200.0" type="right_before_left" weight_num="4.0" weight_sum="0.0" x="999.999999999" x_displacement_sum="-5.07092280747e-10" y="45.722576496" y_displacement_sum="-154.277423504" />
    <node avg_slowdown_ratio="0.0" id="node_10x03" junction="True" old_x="1000.0" old_y="300.0" type="right_before_left" weight_num="4.0" weight_sum="0.0" x="1000.0" x_displacement_sum="1.82665973279e-10" y="206.049381875" y_displacement_sum="-93.9506181251" />
    <node avg_slowdown_ratio="0.0" id="node_10x04" junction="True" old_x="1000.0" old_y="400.0" type="right_before_left" weight_num="4.0" weight_sum="0.0" x="1000.0" x_displacement_sum="4.69645702727e-10" y="324.822272442" y_displacement_sum="-75.1777275578" />
    <node avg_slowdown_ratio="0.0" id="node_10x05" junction="True" old_x="1000.0" old_y="500.0" type="right_before_left" weight_num="4.0" weight_sum="0.0" x="1000.0" x_displacement_sum="-2.6840268681e-10" y="406.377138131" y_displacement_sum="-93.6228618693" />
    <node avg_slowdown_ratio="0.0" id="node_10x06" junction="True" old_x="1000.0" old_y="600.0" type="right_before_left" weight_num="4.0" weight_sum="0.0" x="999.999999999" x_displacement_sum="-8.57182235762e-10" y="463.636015611" y_displacement_sum="-136.363984389" />
    <node avg_slowdown_ratio="0.0" id="node_10x07" junction="True" old_x="1000.0" old_y="700.0" type="right_before_left" weight_num="4.0" weight_sum="0.0" x="999.999999999" x_displacement_sum="-8.87753143756e-10" y="536.037455145" y_displacement_sum="-163.962544855" />
    <node avg_slowdown_ratio="0.0" id="node_10x08" junction="True" old_x="1000.0" old_y="800.0" type="right_before_left" weight_num="4.0" weight_sum="0.0" x="999.999999999" x_displacement_sum="-7.00740632485e-10" y="664.125579088" y_displacement_sum="-135.874420912" />
    <node avg_slowdown_ratio="0.0" id="node_10x09" junction="True" old_x="1000.0" old_y="900.0" type="right_before_left" weight_num="4.0" weight_sum="0.0" x="1000.0" x_displacement_sum="-4.50138828013e-10" y="835.211295971" y_displacement_sum="-64.7887040294" />
    <node avg_slowdown_ratio="0.0" id="node_10x11" junction="True" old_x="1000.0" old_y="1100.0" type="right_before_left" weight_num="4.0" weight_sum="0.0" x="1000.0" x_displacement_sum="7.87850548255e-10" y="1164.78870403" y_displacement_sum="64.7887040284" />
    <node avg_slowdown_ratio="0.0" id="node_10x12" junction="True" old_x="1000.0" old_y="1200.0" type="right_before_left" weight_num="4.0" weight_sum="0.0" x="1000.0" x_displacement_sum="9.44980213871e-10" y="1335.87442091" y_displacement_sum="135.874420912" />
    <node avg_slowdown_ratio="0.0" id="node_10x13" junction="True" old_x="1000.0" old_y="1300.0" type="right_before_left" weight_num="4.0" weight_sum="0.0" x="1000.0" x_displacement_sum="1.29382213884e-09" y="1463.96254486" y_displacement_sum="163.962544855" />
    <node avg_slowdown_ratio="0.0" id="node_10x14" junction="True" old_x="1000.0" old_y="1400.0" type="right_before_left" weight_num="4.0" weight_sum="0.0" x="1000.0" x_displacement_sum="1.46523533237e-09" y="1536.36398439" y_displacement_sum="136.363984389" />
    <node avg_slowdown_ratio="0.0" id="node_10x15" junction="True" old_x="1000.0" old_y="1500.0" type="right_before_left" weight_num="4.0" weight_sum="0.0" x="1000.0" x_displacement_sum="3.24973175106e-10" y="1593.62286187" y_displacement_sum="93.6228618687" />
    <node avg_slowdown_ratio="0.0" id="node_10x16" junction="True" old_x="1000.0" old_y="1600.0" type="right_before_left" weight_num="4.0" weight_sum="0.0" x="1000.0" x_displacement_sum="4.31050632688e-10" y="1675.17772756" y_displacement_sum="75.177727557" />
    <node avg_slowdown_ratio="0.0" id="node_10x17" junction="True" old_x="1000.0" old_y="1700.0" type="right_before_left" weight_num="4.0" weight_sum="0.0" x="1000.0" x_displacement_sum="1.99692512526e-10" y="1793.95061813" y_displacement_sum="93.9506181253" />
    <node avg_slowdown_ratio="0.0" id="node_10x18" junction="True" old_x="1000.0" old_y="1800.0" type="right_before_left" weight_num="4.0" weight_sum="0.0" x="1000.0" x_displacement_sum="-9.1068125263e-11" y="1954.2774235" y_displacement_sum="154.277423504" />
    <node avg_slowdown_ratio="0.0" id="node_10x19" junction="True" old_x="1000.0" old_y="1900.0" type="right_before_left" weight_num="4.0" weight_sum="0.0" x="1000.0" x_displacement_sum="8.0256411239e-10" y="2152.94908402" y_displacement_sum="252.949084021" />
    <node avg_slowdown_ratio="0.0" id="node_10x20" junction="True" old_x="1000.0" old_y="2000.0" type="right_before_left" weight_num="3.0" weight_sum="0.0" x="999.999999999" x_displacement_sum="-1.09109037777e-09" y="2349.7467077" y_displacement_sum="349.746707699" />
    <node avg_slowdown_ratio="0.0" id="node_11x00" junction="True" old_x="1100.0" old_y="0.0" type="right_before_left" weight_num="3.0" weight_sum="0.0" x="1100.41378558" x_displacement_sum="0.413785577069" y="-349.65754206" y_displacement_sum="-349.65754206" />
    <node avg_slowdown_ratio="0.0" id="node_11x01" junction="True" old_x="1100.0" old_y="100.0" type="right_before_left" weight_num="4.0" weight_sum="0.0" x="1100.67233131" x_displacement_sum="0.672331313658" y="-152.761628636" y_displacement_sum="-252.761628636" />
    <node avg_slowdown_ratio="0.0" id="node_11x02" junction="True" old_x="1100.0" old_y="200.0" type="right_before_left" weight_num="4.0" weight_sum="0.0" x="1101.25430386" x_displacement_sum="1.25430386075" y="46.174244902" y_displacement_sum="-153.825755098" />
    <node avg_slowdown_ratio="0.0" id="node_11x03" junction="True" old_x="1100.0" old_y="300.0" type="right_before_left" weight_num="4.0" weight_sum="0.0" x="1102.69102176" x_displacement_sum="2.69102176485" y="207.190769736" y_displacement_sum="-92.8092302636" />
    <node avg_slowdown_ratio="0.0" id="node_11x04" junction="True" old_x="1100.0" old_y="400.0" type="right_before_left" weight_num="4.0" weight_sum="0.0" x="1106.26227938" x_displacement_sum="6.26227937656" y="327.62474687" y_displacement_sum="-72.3752531302" />
    <node avg_slowdown_ratio="0.0" id="node_11x05" junction="True" old_x="1100.0" old_y="500.0" type="right_before_left" weight_num="4.0" weight_sum="0.0" x="1114.49459256" x_displacement_sum="14.4945925611" y="412.462650741" y_displacement_sum="-87.5373492591" />
    <node avg_slowdown_ratio="0.0" id="node_11x06" junction="True" old_x="1100.0" old_y="600.0" type="right_before_left" weight_num="4.0" weight_sum="0.0" x="1130.12731229" x_displacement_sum="30.1273122923" y="473.628211931" y_displacement_sum="-126.371788069" />
    <node avg_slowdown_ratio="0.0" id="node_11x07" junction="True" old_x="1100.0" old_y="700.0" type="right_before_left" weight_num="4.0" weight_sum="0.0" x="1150.70901352" x_displacement_sum="50.7090135166" y="545.969531601" y_displacement_sum="-154.030468399" />
    <node avg_slowdown_ratio="0.0" id="node_11x08" junction="True" old_x="1100.0" old_y="800.0" type="right_before_left" weight_num="4.0" weight_sum="0.0" x="1165.83140781" x_displacement_sum="65.831407805" y="667.930073067" y_displacement_sum="-132.069926933" />
    <node avg_slowdown_ratio="0.0" id="node_11x09" junction="True" old_x="1100.0" old_y="900.0" type="right_before_left" weight_num="4.0" weight_sum="0.0" x="1168.1669662" x_displacement_sum="68.166966201" y="831.833033797" y_displacement_sum="-68.1669662033" />
    <node avg_slowdown_ratio="0.0" id="node_11x10" junction="True" old_x="1100.0" old_y="1000.0" type="right_before_left" weight_num="4.0" weight_sum="0.0" x="1164.78870403" x_displacement_sum="64.788704027" y="1000.0" y_displacement_sum="1.26505483606e-11" />
    <node avg_slowdown_ratio="0.0" id="node_11x11" junction="True" old_x="1100.0" old_y="1100.0" type="right_before_left" weight_num="4.0" weight_sum="0.0" x="1168.1669662" x_displacement_sum="68.1669662024" y="1168.1669662" y_displacement_sum="68.1669662032" />
    <node avg_slowdown_ratio="0.0" id="node_11x12" junction="True" old_x="1100.0" old_y="1200.0" type="right_before_left" weight_num="4.0" weight_sum="0.0" x="1165.83140781" x_displacement_sum="65.8314078053" y="1332.06992693" y_displacement_sum="132.069926933" />
    <node avg_slowdown_ratio="0.0" id="node_11x13" junction="True" old_x="1100.0" old_y="1300.0" type="right_before_left" weight_num="4.0" weight_sum="0.0" x="1150.70901352" x_displacement_sum="50.7090135167" y="1454.0304684" y_displacement_sum="154.030468399" />
    <node avg_slowdown_ratio="0.0" id="node_11x14" junction="True" old_x="1100.0" old_y="1400.0" type="right_before_left" weight_num="4.0" weight_sum="0.0" x="1130.12731229" x_displacement_sum="30.1273122925" y="1526.37178807" y_displacement_sum="126.371788069" />
    <node avg_slowdown_ratio="0.0" id="node_11x15" junction="True" old_x="1100.0" old_y="1500.0" type="right_before_left" weight_num="4.0" weight_sum="0.0" x="1114.49459256" x_displacement_sum="14.4945925627" y="1587.53734926" y_displacement_sum="87.5373492586" />
    <node avg_slowdown_ratio="0.0" id="node_11x16" junction="True" old_x="1100.0" old_y="1600.0" type="right_before_left" weight_num="4.0" weight_sum="0.0" x="1106.26227938" x_displacement_sum="6.26227937552" y="1672.37525313" y_displacement_sum="72.3752531301" />
    <node avg_slowdown_ratio="0.0" id="node_11x17" junction="True" old_x="1100.0" old_y="1700.0" type="right_before_left" weight_num="4.0" weight_sum="0.0" x="1102.69102176" x_displacement_sum="2.6910217645" y="1792.80923026" y_displacement_sum="92.8092302639" />
    <node avg_slowdown_ratio="0.0" id="node_11x18" junction="True" old_x="1100.0" old_y="1800.0" type="right_before_left" weight_num="4.0" weight_sum="0.0" x="1101.25430386" x_displacement_sum="1.25430386116" y="1953.8257551" y_displacement_sum="153.825755097" />
    <node avg_slowdown_ratio="0.0" id="node_11x19" junction="True" old_x="1100.0" old_y="1900.0" type="right_before_left" weight_num="4.0" weight_sum="0.0" x="1100.67233132" x_displacement_sum="0.672331315385" y="2152.76162863" y_displacement_sum="252.761628635" />
    <node avg_slowdown_ratio="0.0" id="node_11x20" junction="True" old_x="1100.0" old_y="2000.0" type="right_before_left" weight_num="3.0" weight_sum="0.0" x="1100.41378557" x_displacement_sum="0.413785573652" y="2349.65754206" y_displacement_sum="349.657542059" />
    <node avg_slowdown_ratio="0.0" id="node_12x00" junction="True" old_x="1200.0" old_y="0.0" type="right_before_left" weight_num="3.0" weight_sum="0.0" x="1201.02486992" x_displacement_sum="1.02486991939" y="-349.382826774" y_displacement_sum="-349.382826774" />
    <node avg_slowdown_ratio="0.0" id="node_12x01" junction="True" old_x="1200.0" old_y="100.0" type="right_before_left" weight_num="4.0" weight_sum="0.0" x="1201.53051849" x_displacement_sum="1.53051849002" y="-152.231240019" y_displacement_sum="-252.231240019" />
    <node avg_slowdown_ratio="0.0" id="node_12x02" junction="True" old_x="1200.0" old_y="200.0" type="right_before_left" weight_num="4.0" weight_sum="0.0" x="1202.55080742" x_displacement_sum="2.55080741561" y="47.384365877" y_displacement_sum="-152.615634123" />
    <node avg_slowdown_ratio="0.0" id="node_12x03" junction="True" old_x="1200.0" old_y="300.0" type="right_before_left" weight_num="4.0" weight_sum="0.0" x="1204.90934883" x_displacement_sum="4.90934883361" y="210.152244484" y_displacement_sum="-89.847755516" />
    <node avg_slowdown_ratio="0.0" id="node_12x04" junction="True" old_x="1200.0" old_y="400.0" type="right_before_left" weight_num="4.0" weight_sum="0.0" x="1210.54151205" x_displacement_sum="10.5415120534" y="334.747226353" y_displacement_sum="-65.252773647" />
    <node avg_slowdown_ratio="0.0" id="node_12x05" junction="True" old_x="1200.0" old_y="500.0" type="right_before_left" weight_num="4.0" weight_sum="0.0" x="1223.2404053" x_displacement_sum="23.2404052987" y="427.836184502" y_displacement_sum="-72.1638154976" />
    <node avg_slowdown_ratio="0.0" id="node_12x06" junction="True" old_x="1200.0" old_y="600.0" type="right_before_left" weight_num="4.0" weight_sum="0.0" x="1247.6490504" x_displacement_sum="47.649050402" y="499.649440999" y_displacement_sum="-100.350559001" />
    <node avg_slowdown_ratio="0.0" id="node_12x07" junction="True" old_x="1200.0" old_y="700.0" type="right_before_left" weight_num="4.0" weight_sum="0.0" x="1282.5909517" x_displacement_sum="82.5909516988" y="574.820188697" y_displacement_sum="-125.179811303" />
    <node avg_slowdown_ratio="0.0" id="node_12x08" junction="True" old_x="1200.0" old_y="800.0" type="right_before_left" weight_num="4.0" weight_sum="0.0" x="1314.98139108" x_displacement_sum="114.981391079" y="685.018608921" y_displacement_sum="-114.981391079" />
    <node avg_slowdown_ratio="0.0" id="node_12x09" junction="True" old_x="1200.0" old_y="900.0" type="right_before_left" weight_num="4.0" weight_sum="0.0" x="1332.06992693" x_displacement_sum="132.069926933" y="834.168592193" y_displacement_sum="-65.831407807" />
    <node avg_slowdown_ratio="0.0" id="node_12x10" junction="True" old_x="1200.0" old_y="1000.0" type="right_before_left" weight_num="4.0" weight_sum="0.0" x="1335.87442091" x_displacement_sum="135.874420912" y="1000.0" y_displacement_sum="1.29602136315e-11" />
    <node avg_slowdown_ratio="0.0" id="node_12x11" junction="True" old_x="1200.0" old_y="1100.0" type="right_before_left" weight_num="4.0" weight_sum="0.0" x="1332.06992693" x_displacement_sum="132.069926933" y="1165.83140781" y_displacement_sum="65.8314078076" />
    <node avg_slowdown_ratio="0.0" id="node_12x12" junction="True" old_x="1200.0" old_y="1200.0" type="right_before_left" weight_num="4.0" weight_sum="0.0" x="1314.98139108" x_displacement_sum="114.981391079" y="1314.98139108" y_displacement_sum="114.981391079" />
    <node avg_slowdown_ratio="0.0" id="node_12x13" junction="True" old_x="1200.0" old_y="1300.0" type="right_before_left" weight_num="4.0" weight_sum="0.0" x="1282.5909517" x_displacement_sum="82.5909516996" y="1425.1798113" y_displacement_sum="125.179811303" />
    <node avg_slowdown_ratio="0.0" id="node_12x14" junction="True" old_x="1200.0" old_y="1400.0" type="right_before_left" weight_num="4.0" weight_sum="0.0" x="1247.6490504" x_displacement_sum="47.6490504022" y="1500.350559" y_displacement_sum="100.350558999" />
    <node avg_slowdown_ratio="0.0" id="node_12x15" junction="True" old_x="1200.0" old_y="1500.0" type="right_before_left" weight_num="4.0" weight_sum="0.0" x="1223.2404053" x_displacement_sum="23.2404053003" y="1572.1638155" y_displacement_sum="72.1638154985" />
    <node avg_slowdown_ratio="0.0" id="node_12x16" junction="True" old_x="1200.0" old_y="1600.0" type="right_before_left" weight_num="4.0" weight_sum="0.0" x="1210.54151205" x_displacement_sum="10.5415120534" y="1665.25277365" y_displacement_sum="65.2527736473" />
    <node avg_slowdown_ratio="0.0" id="node_12x17" junction="True" old_x="1200.0" old_y="1700.0" type="right_before_left" weight_num="4.0" weight_sum="0.0" x="1204.90934883" x_displacement_sum="4.90934883319" y="1789.84775552" y_displacement_sum="89.8477555151" />
    <node avg_slowdown_ratio="0.0" id="node_12x18" junction="True" old_x="1200.0" old_y="1800.0" type="right_before_left" weight_num="4.0" weight_sum="0.0" x="1202.55080742" x_displacement_sum="2.550807416" y="1952.61563412" y_displacement_sum="152.615634122" />
    <node avg_slowdown_ratio="0.0" id="node_12x19" junction="True" old_x="1200.0" old_y="1900.0" type="right_before_left" weight_num="4.0" weight_sum="0.0" x="1201.53051849" x_displacement_sum="1.53051849175" y="2152.23124002" y_displacement_sum="252.231240017" />
    <node avg_slowdown_ratio="0.0" id="node_12x20" junction="True" old_x="1200.0" old_y="2000.0" type="right_before_left" weight_num="3.0" weight_sum="0.0" x="1201.02486992" x_displacement_sum="1.02486991692" y="2349.38282677" y_displacement_sum="349.382826773" />
    <node avg_slowdown_ratio="0.0" id="node_13x00" junction="True" old_x="1300.0" old_y="0.0" type="right_before_left" weight_num="3.0" weight_sum="0.0" x="1302.20394621" x_displacement_sum="2.20394620944" y="-348.870893075" y_displacement_sum="-348.870893075" />
    <node avg_slowdown_ratio="0.0" id="node_13x01" junction="True" old_x="1300.0" old_y="100.0" type="right_before_left" weight_num="4.0" weight_sum="0.0" x="1303.00833233" x_displacement_sum="3.00833232716" y="-151.404520756" y_displacement_sum="-251.404520756" />
    <node avg_slowdown_ratio="0.0" id="node_13x02" junction="True" old_x="1300.0" old_y="200.0" type="right_before_left" weight_num="4.0" weight_sum="0.0" x="1304.32428081" x_displacement_sum="4.32428081028" y="49.037254123" y_displacement_sum="-150.962745877" />
    <node avg_slowdown_ratio="0.0" id="node_13x03" junction="True" old_x="1300.0" old_y="300.0" type="right_before_left" weight_num="4.0" weight_sum="0.0" x="1306.96362778" x_displacement_sum="6.9636277813" y="213.897825102" y_displacement_sum="-86.1021748983" />
    <node avg_slowdown_ratio="0.0" id="node_13x04" junction="True" old_x="1300.0" old_y="400.0" type="right_before_left" weight_num="4.0" weight_sum="0.0" x="1312.76966409" x_displacement_sum="12.7696640901" y="343.343022958" y_displacement_sum="-56.6569770416" />
    <node avg_slowdown_ratio="0.0" id="node_13x05" junction="True" old_x="1300.0" old_y="500.0" type="right_before_left" weight_num="4.0" weight_sum="0.0" x="1325.24796181" x_displacement_sum="25.2479618119" y="445.991154217" y_displacement_sum="-54.0088457833" />
    <node avg_slowdown_ratio="0.0" id="node_13x06" junction="True" old_x="1300.0" old_y="600.0" type="right_before_left" weight_num="4.0" weight_sum="0.0" x="1349.02675036" x_displacement_sum="49.0267503607" y="531.299232164" y_displacement_sum="-68.7007678362" />
    <node avg_slowdown_ratio="0.0" id="node_13x07" junction="True" old_x="1300.0" old_y="700.0" type="right_before_left" weight_num="4.0" weight_sum="0.0" x="1385.28908445" x_displacement_sum="85.2890844547" y="614.710915545" y_displacement_sum="-85.2890844547" />
    <node avg_slowdown_ratio="0.0" id="node_13x08" junction="True" old_x="1300.0" old_y="800.0" type="right_before_left" weight_num="4.0" weight_sum="0.0" x="1425.1798113" x_displacement_sum="125.179811303" y="717.409048301" y_displacement_sum="-82.5909516991" />
    <node avg_slowdown_ratio="0.0" id="node_13x09" junction="True" old_x="1300.0" old_y="900.0" type="right_before_left" weight_num="4.0" weight_sum="0.0" x="1454.0304684" x_displacement_sum="154.030468399" y="849.290986484" y_displacement_sum="-50.7090135164" />
    <node avg_slowdown_ratio="0.0" id="node_13x10" junction="True" old_x="1300.0" old_y="1000.0" type="right_before_left" weight_num="4.0" weight_sum="0.0" x="1463.96254486" x_displacement_sum="163.962544855" y="1000.0" y_displacement_sum="1.2752139622e-11" />
    <node avg_slowdown_ratio="0.0" id="node_13x11" junction="True" old_x="1300.0" old_y="1100.0" type="right_before_left" weight_num="4.0" weight_sum="0.0" x="1454.0304684" x_displacement_sum="154.030468399" y="1150.70901352" y_displacement_sum="50.7090135159" />
    <node avg_slowdown_ratio="0.0" id="node_13x12" junction="True" old_x="1300.0" old_y="1200.0" type="right_before_left" weight_num="4.0" weight_sum="0.0" x="1425.1798113" x_displacement_sum="125.179811303" y="1282.5909517" y_displacement_sum="82.5909516993" />
    <node avg_slowdown_ratio="0.0" id="node_13x13" junction="True" old_x="1300.0" old_y="1300.0" type="right_before_left" weight_num="4.0" weight_sum="0.0" x="1385.28908445" x_displacement_sum="85.2890844545" y="1385.28908445" y_displacement_sum="85.2890844541" />
    <node avg_slowdown_ratio="0.0" id="node_13x14" junction="True" old_x="1300.0" old_y="1400.0" type="right_before_left" weight_num="4.0" weight_sum="0.0" x="1349.02675036" x_displacement_sum="49.0267503609" y="1468.70076784" y_displacement_sum="68.7007678364" />
    <node avg_slowdown_ratio="0.0" id="node_13x15" junction="True" old_x="1300.0" old_y="1500.0" type="right_before_left" weight_num="4.0" weight_sum="0.0" x="1325.24796181" x_displacement_sum="25.2479618135" y="1554.00884578" y_displacement_sum="54.0088457833" />
    <node avg_slowdown_ratio="0.0" id="node_13x16" junction="True" old_x="1300.0" old_y="1600.0" type="right_before_left" weight_num="4.0" weight_sum="0.0" x="1312.76966409" x_displacement_sum="12.7696640911" y="1656.65697704" y_displacement_sum="56.6569770416" />
    <node avg_slowdown_ratio="0.0" id="node_13x17" junction="True" old_x="1300.0" old_y="1700.0" type="right_before_left" weight_num="4.0" weight_sum="0.0" x="1306.96362778" x_displacement_sum="6.96362777993" y="1786.1021749" y_displacement_sum="86.1021748978" />
    <node avg_slowdown_ratio="0.0" id="node_13x18" junction="True" old_x="1300.0" old_y="1800.0" type="right_before_left" weight_num="4.0" weight_sum="0.0" x="1304.32428081" x_displacement_sum="4.32428081167" y="1950.96274588" y_displacement_sum="150.962745876" />
    <node avg_slowdown_ratio="0.0" id="node_13x19" junction="True" old_x="1300.0" old_y="1900.0" type="right_before_left" weight_num="4.0" weight_sum="0.0" x="1303.00833233" x_displacement_sum="3.00833232889" y="2151.40452075" y_displacement_sum="251.404520755" />
    <node avg_slowdown_ratio="0.0" id="node_13x20" junction="True" old_x="1300.0" old_y="2000.0" type="right_before_left" weight_num="3.0" weight_sum="0.0" x="1302.20394621" x_displacement_sum="2.20394620697" y="2348.87089307" y_displacement_sum="348.870893074" />
    <node avg_slowdown_ratio="0.0" id="node_14x00" junction="True" old_x="1400.0" old_y="0.0" type="right_before_left" weight_num="3.0" weight_sum="0.0" x="1404.74333561" x_displacement_sum="4.74333561367" y="-347.928976847" y_displacement_sum="-347.928976847" />
    <node avg_slowdown_ratio="0.0" id="node_14x01" junction="True" old_x="1400.0" old_y="100.0" type="right_before_left" weight_num="4.0" weight_sum="0.0" x="1406.10906891" x_displacement_sum="6.10906890519" y="-150.211066525" y_displacement_sum="-250.211066525" />
    <node avg_slowdown_ratio="0.0" id="node_14x02" junction="True" old_x="1400.0" old_y="200.0" type="right_before_left" weight_num="4.0" weight_sum="0.0" x="1407.78717176" x_displacement_sum="7.78717175579" y="50.910053406" y_displacement_sum="-149.089946594" />
    <node avg_slowdown_ratio="0.0" id="node_14x03" junction="True" old_x="1400.0" old_y="300.0" type="right_before_left" weight_num="4.0" weight_sum="0.0" x="1410.37573835" x_displacement_sum="10.3757383457" y="217.525281767" y_displacement_sum="-82.4747182335" />
    <node avg_slowdown_ratio="0.0" id="node_14x04" junction="True" old_x="1400.0" old_y="400.0" type="right_before_left" weight_num="4.0" weight_sum="0.0" x="1415.21953103" x_displacement_sum="15.2195310273" y="350.960976872" y_displacement_sum="-49.0390231284" />
    <node avg_slowdown_ratio="0.0" id="node_14x05" junction="True" old_x="1400.0" old_y="500.0" type="right_before_left" weight_num="4.0" weight_sum="0.0" x="1424.73133673" x_displacement_sum="24.7313367304" y="461.30454589" y_displacement_sum="-38.6954541103" />
[...]
    <node avg_slowdown_ratio="0.0" id="node_17x09" junction="True" old_x="1700.0" old_y="900.0" type="right_before_left" weight_num="4.0" weight_sum="0.0" x="1792.80923026" x_displacement_sum="92.8092302639" y="897.308978235" y_displacement_sum="-2.69102176481" />
    <node avg_slowdown_ratio="0.0" id="node_17x10" junction="True" old_x="1700.0" old_y="1000.0" type="right_before_left" weight_num="4.0" weight_sum="0.0" x="1793.95061813" x_displacement_sum="93.9506181251" y="1000.0" y_displacement_sum="1.32925094543e-11" />
    <node avg_slowdown_ratio="0.0" id="node_17x11" junction="True" old_x="1700.0" old_y="1100.0" type="right_before_left" weight_num="4.0" weight_sum="0.0" x="1792.80923026" x_displacement_sum="92.8092302641" y="1102.69102176" y_displacement_sum="2.69102176467" />
    <node avg_slowdown_ratio="0.0" id="node_17x12" junction="True" old_x="1700.0" old_y="1200.0" type="right_before_left" weight_num="4.0" weight_sum="0.0" x="1789.84775552" x_displacement_sum="89.847755517" y="1204.90934883" y_displacement_sum="4.90934883346" />
    <node avg_slowdown_ratio="0.0" id="node_17x13" junction="True" old_x="1700.0" old_y="1300.0" type="right_before_left" weight_num="4.0" weight_sum="0.0" x="1786.1021749" x_displacement_sum="86.1021748992" y="1306.96362778" y_displacement_sum="6.9636277807" />
    <node avg_slowdown_ratio="0.0" id="node_17x14" junction="True" old_x="1700.0" old_y="1400.0" type="right_before_left" weight_num="4.0" weight_sum="0.0" x="1782.47471824" x_displacement_sum="82.4747182352" y="1410.37573835" y_displacement_sum="10.3757383453" />
    <node avg_slowdown_ratio="0.0" id="node_17x15" junction="True" old_x="1700.0" old_y="1500.0" type="right_before_left" weight_num="4.0" weight_sum="0.0" x="1779.26247032" x_displacement_sum="79.2624703228" y="1518.21453709" y_displacement_sum="18.2145370892" />
    <node avg_slowdown_ratio="0.0" id="node_17x16" junction="True" old_x="1700.0" old_y="1600.0" type="right_before_left" weight_num="4.0" weight_sum="0.0" x="1776.09939895" x_displacement_sum="76.0993989454" y="1635.86586644" y_displacement_sum="35.8658664411" />
    <node avg_slowdown_ratio="0.0" id="node_17x17" junction="True" old_x="1700.0" old_y="1700.0" type="right_before_left" weight_num="4.0" weight_sum="0.0" x="1772.10800895" x_displacement_sum="72.1080089474" y="1772.10800895" y_displacement_sum="72.1080089468" />
    <node avg_slowdown_ratio="0.0" id="node_17x18" junction="True" old_x="1700.0" old_y="1800.0" type="right_before_left" weight_num="4.0" weight_sum="0.0" x="1766.12619016" x_displacement_sum="66.1261901574" y="1938.14291372" y_displacement_sum="138.14291372" />
    <node avg_slowdown_ratio="0.0" id="node_17x19" junction="True" old_x="1700.0" old_y="1900.0" type="right_before_left" weight_num="4.0" weight_sum="0.0" x="1757.16443234" x_displacement_sum="57.1644323364" y="2137.01167804" y_displacement_sum="237.011678044" />
    <node avg_slowdown_ratio="0.0" id="node_17x20" junction="True" old_x="1700.0" old_y="2000.0" type="right_before_left" weight_num="3.0" weight_sum="0.0" x="1745.2507436" x_displacement_sum="45.2507436029" y="2332.87967812" y_displacement_sum="332.87967812" />
    <node avg_slowdown_ratio="0.0" id="node_18x00" junction="True" old_x="1800.0" old_y="0.0" type="right_before_left" weight_num="3.0" weight_sum="0.0" x="1887.30714759" x_displacement_sum="87.3071475871" y="-313.726395069" y_displacement_sum="-313.726395069" />
    <node avg_slowdown_ratio="0.0" id="node_18x01" junction="True" old_x="1800.0" old_y="100.0" type="right_before_left" weight_num="4.0" weight_sum="0.0" x="1911.35522381" x_displacement_sum="111.355223814" y="-121.851947453" y_displacement_sum="-221.851947453" />
    <node avg_slowdown_ratio="0.0" id="node_18x02" junction="True" old_x="1800.0" old_y="200.0" type="right_before_left" weight_num="4.0" weight_sum="0.0" x="1928.14383944" x_displacement_sum="128.14383944" y="71.85616056" y_displacement_sum="-128.14383944" />
    <node avg_slowdown_ratio="0.0" id="node_18x03" junction="True" old_x="1800.0" old_y="300.0" type="right_before_left" weight_num="4.0" weight_sum="0.0" x="1938.14291372" x_displacement_sum="138.142913719" y="233.873809843" y_displacement_sum="-66.1261901569" />
    <node avg_slowdown_ratio="0.0" id="node_18x04" junction="True" old_x="1800.0" old_y="400.0" type="right_before_left" weight_num="4.0" weight_sum="0.0" x="1943.67957337" x_displacement_sum="143.679573368" y="367.814167852" y_displacement_sum="-32.1858321478" />
    <node avg_slowdown_ratio="0.0" id="node_18x05" junction="True" old_x="1800.0" old_y="500.0" type="right_before_left" weight_num="4.0" weight_sum="0.0" x="1946.87829261" x_displacement_sum="146.878292612" y="484.525733841" y_displacement_sum="-15.4742661589" />
    <node avg_slowdown_ratio="0.0" id="node_18x06" junction="True" old_x="1800.0" old_y="600.0" type="right_before_left" weight_num="4.0" weight_sum="0.0" x="1949.08994659" x_displacement_sum="149.089946592" y="592.212828244" y_displacement_sum="-7.78717175611" />
    <node avg_slowdown_ratio="0.0" id="node_18x07" junction="True" old_x="1800.0" old_y="700.0" type="right_before_left" weight_num="4.0" weight_sum="0.0" x="1950.96274588" x_displacement_sum="150.962745877" y="695.675719189" y_displacement_sum="-4.32428081098" />
    <node avg_slowdown_ratio="0.0" id="node_18x08" junction="True" old_x="1800.0" old_y="800.0" type="right_before_left" weight_num="4.0" weight_sum="0.0" x="1952.61563412" x_displacement_sum="152.615634123" y="797.449192584" y_displacement_sum="-2.55080741581" />
    <node avg_slowdown_ratio="0.0" id="node_18x09" junction="True" old_x="1800.0" old_y="900.0" type="right_before_left" weight_num="4.0" weight_sum="0.0" x="1953.8257551" x_displacement_sum="153.825755099" y="898.745696139" y_displacement_sum="-1.25430386137" />
    <node avg_slowdown_ratio="0.0" id="node_18x10" junction="True" old_x="1800.0" old_y="1000.0" type="right_before_left" weight_num="4.0" weight_sum="0.0" x="1954.2774235" x_displacement_sum="154.277423502" y="1000.0" y_displacement_sum="1.61318736147e-11" />
    <node avg_slowdown_ratio="0.0" id="node_18x11" junction="True" old_x="1800.0" old_y="1100.0" type="right_before_left" weight_num="4.0" weight_sum="0.0" x="1953.8257551" x_displacement_sum="153.825755099" y="1101.25430386" y_displacement_sum="1.25430386149" />
    <node avg_slowdown_ratio="0.0" id="node_18x12" junction="True" old_x="1800.0" old_y="1200.0" type="right_before_left" weight_num="4.0" weight_sum="0.0" x="1952.61563412" x_displacement_sum="152.615634124" y="1202.55080742" y_displacement_sum="2.55080741595" />
    <node avg_slowdown_ratio="0.0" id="node_18x13" junction="True" old_x="1800.0" old_y="1300.0" type="right_before_left" weight_num="4.0" weight_sum="0.0" x="1950.96274588" x_displacement_sum="150.962745878" y="1304.32428081" y_displacement_sum="4.32428081098" />
    <node avg_slowdown_ratio="0.0" id="node_18x14" junction="True" old_x="1800.0" old_y="1400.0" type="right_before_left" weight_num="4.0" weight_sum="0.0" x="1949.08994659" x_displacement_sum="149.089946593" y="1407.78717176" y_displacement_sum="7.7871717563" />
    <node avg_slowdown_ratio="0.0" id="node_18x15" junction="True" old_x="1800.0" old_y="1500.0" type="right_before_left" weight_num="4.0" weight_sum="0.0" x="1946.87829261" x_displacement_sum="146.878292613" y="1515.47426616" y_displacement_sum="15.4742661589" />
    <node avg_slowdown_ratio="0.0" id="node_18x16" junction="True" old_x="1800.0" old_y="1600.0" type="right_before_left" weight_num="4.0" weight_sum="0.0" x="1943.67957337" x_displacement_sum="143.679573368" y="1632.18583215" y_displacement_sum="32.1858321477" />
    <node avg_slowdown_ratio="0.0" id="node_18x17" junction="True" old_x="1800.0" old_y="1700.0" type="right_before_left" weight_num="4.0" weight_sum="0.0" x="1938.14291372" x_displacement_sum="138.142913719" y="1766.12619016" y_displacement_sum="66.1261901568" />
    <node avg_slowdown_ratio="0.0" id="node_18x18" junction="True" old_x="1800.0" old_y="1800.0" type="right_before_left" weight_num="4.0" weight_sum="0.0" x="1928.14383944" x_displacement_sum="128.14383944" y="1928.14383944" y_displacement_sum="128.143839441" />
    <node avg_slowdown_ratio="0.0" id="node_18x19" junction="True" old_x="1800.0" old_y="1900.0" type="right_before_left" weight_num="4.0" weight_sum="0.0" x="1911.35522382" x_displacement_sum="111.355223815" y="2121.85194745" y_displacement_sum="221.851947453" />
    <node avg_slowdown_ratio="0.0" id="node_18x20" junction="True" old_x="1800.0" old_y="2000.0" type="right_before_left" weight_num="3.0" weight_sum="0.0" x="1887.30714758" x_displacement_sum="87.3071475836" y="2313.72639507" y_displacement_sum="313.726395068" />
    <node avg_slowdown_ratio="0.0" id="node_19x00" junction="True" old_x="1900.0" old_y="0.0" type="right_before_left" weight_num="3.0" weight_sum="0.0" x="2050.63819509" x_displacement_sum="150.638195093" y="-276.22150219" y_displacement_sum="-276.22150219" />
    <node avg_slowdown_ratio="0.0" id="node_19x01" junction="True" old_x="1900.0" old_y="100.0" type="right_before_left" weight_num="4.0" weight_sum="0.0" x="2093.96704059" x_displacement_sum="193.967040593" y="-93.967040592" y_displacement_sum="-193.967040592" />
    <node avg_slowdown_ratio="0.0" id="node_19x02" junction="True" old_x="1900.0" old_y="200.0" type="right_before_left" weight_num="4.0" weight_sum="0.0" x="2121.85194745" x_displacement_sum="221.851947454" y="88.644776185" y_displacement_sum="-111.355223815" />
    <node avg_slowdown_ratio="0.0" id="node_19x03" junction="True" old_x="1900.0" old_y="300.0" type="right_before_left" weight_num="4.0" weight_sum="0.0" x="2137.01167804" x_displacement_sum="237.011678045" y="242.835567664" y_displacement_sum="-57.1644323358" />
    <node avg_slowdown_ratio="0.0" id="node_19x04" junction="True" old_x="1900.0" old_y="400.0" type="right_before_left" weight_num="4.0" weight_sum="0.0" x="2144.56525601" x_displacement_sum="244.565256014" y="372.422612655" y_displacement_sum="-27.5773873451" />
    <node avg_slowdown_ratio="0.0" id="node_19x05" junction="True" old_x="1900.0" old_y="500.0" type="right_before_left" weight_num="4.0" weight_sum="0.0" x="2148.26545365" x_displacement_sum="248.265453653" y="487.064213748" y_displacement_sum="-12.935786252" />
    <node avg_slowdown_ratio="0.0" id="node_19x06" junction="True" old_x="1900.0" old_y="600.0" type="right_before_left" weight_num="4.0" weight_sum="0.0" x="2150.21106652" x_displacement_sum="250.211066523" y="593.890931094" y_displacement_sum="-6.10906890607" />
    <node avg_slowdown_ratio="0.0" id="node_19x07" junction="True" old_x="1900.0" old_y="700.0" type="right_before_left" weight_num="4.0" weight_sum="0.0" x="2151.40452075" x_displacement_sum="251.404520754" y="696.991667672" y_displacement_sum="-3.00833232788" />
    <node avg_slowdown_ratio="0.0" id="node_19x08" junction="True" old_x="1900.0" old_y="800.0" type="right_before_left" weight_num="4.0" weight_sum="0.0" x="2152.23124002" x_displacement_sum="252.231240019" y="798.469481508" y_displacement_sum="-1.53051849186" />
    <node avg_slowdown_ratio="0.0" id="node_19x09" junction="True" old_x="1900.0" old_y="900.0" type="right_before_left" weight_num="4.0" weight_sum="0.0" x="2152.76162864" x_displacement_sum="252.761628637" y="899.327668686" y_displacement_sum="-0.672331314448" />
    <node avg_slowdown_ratio="0.0" id="node_19x10" junction="True" old_x="1900.0" old_y="1000.0" type="right_before_left" weight_num="4.0" weight_sum="0.0" x="2152.94908402" x_displacement_sum="252.949084018" y="1000.0" y_displacement_sum="4.6964113154e-11" />
    <node avg_slowdown_ratio="0.0" id="node_19x11" junction="True" old_x="1900.0" old_y="1100.0" type="right_before_left" weight_num="4.0" weight_sum="0.0" x="2152.76162864" x_displacement_sum="252.761628637" y="1100.67233131" y_displacement_sum="0.672331314344" />
    <node avg_slowdown_ratio="0.0" id="node_19x12" junction="True" old_x="1900.0" old_y="1200.0" type="right_before_left" weight_num="4.0" weight_sum="0.0" x="2152.23124002" x_displacement_sum="252.231240019" y="1201.53051849" y_displacement_sum="1.53051849191" />
    <node avg_slowdown_ratio="0.0" id="node_19x13" junction="True" old_x="1900.0" old_y="1300.0" type="right_before_left" weight_num="4.0" weight_sum="0.0" x="2151.40452075" x_displacement_sum="251.404520755" y="1303.00833233" y_displacement_sum="3.00833232796" />
    <node avg_slowdown_ratio="0.0" id="node_19x14" junction="True" old_x="1900.0" old_y="1400.0" type="right_before_left" weight_num="4.0" weight_sum="0.0" x="2150.21106652" x_displacement_sum="250.211066524" y="1406.10906891" y_displacement_sum="6.10906890614" />
    <node avg_slowdown_ratio="0.0" id="node_19x15" junction="True" old_x="1900.0" old_y="1500.0" type="right_before_left" weight_num="4.0" weight_sum="0.0" x="2148.26545365" x_displacement_sum="248.265453654" y="1512.93578625" y_displacement_sum="12.935786252" />
    <node avg_slowdown_ratio="0.0" id="node_19x16" junction="True" old_x="1900.0" old_y="1600.0" type="right_before_left" weight_num="4.0" weight_sum="0.0" x="2144.56525601" x_displacement_sum="244.565256014" y="1627.57738735" y_displacement_sum="27.5773873452" />
    <node avg_slowdown_ratio="0.0" id="node_19x17" junction="True" old_x="1900.0" old_y="1700.0" type="right_before_left" weight_num="4.0" weight_sum="0.0" x="2137.01167804" x_displacement_sum="237.011678045" y="1757.16443234" y_displacement_sum="57.1644323353" />
    <node avg_slowdown_ratio="0.0" id="node_19x18" junction="True" old_x="1900.0" old_y="1800.0" type="right_before_left" weight_num="4.0" weight_sum="0.0" x="2121.85194745" x_displacement_sum="221.851947454" y="1911.35522382" y_displacement_sum="111.355223815" />
    <node avg_slowdown_ratio="0.0" id="node_19x19" junction="True" old_x="1900.0" old_y="1900.0" type="right_before_left" weight_num="4.0" weight_sum="0.0" x="2093.96704059" x_displacement_sum="193.967040594" y="2093.96704059" y_displacement_sum="193.967040592" />
    <node avg_slowdown_ratio="0.0" id="node_19x20" junction="True" old_x="1900.0" old_y="2000.0" type="right_before_left" weight_num="3.0" weight_sum="0.0" x="2050.63819509" x_displacement_sum="150.638195091" y="2276.22150219" y_displacement_sum="276.221502189" />
    <node avg_slowdown_ratio="0.0" id="node_20x00" junction="True" old_x="2000.0" old_y="0.0" type="right_before_left" weight_num="2.0" weight_sum="0.0" x="2213.3535336" x_displacement_sum="213.353533601" y="-213.353533599" y_displacement_sum="-213.353533599" />
    <node avg_slowdown_ratio="0.0" id="node_20x01" junction="True" old_x="2000.0" old_y="100.0" type="right_before_left" weight_num="3.0" weight_sum="0.0" x="2276.22150219" x_displacement_sum="276.22150219" y="-50.638195091" y_displacement_sum="-150.638195091" />
    <node avg_slowdown_ratio="0.0" id="node_20x02" junction="True" old_x="2000.0" old_y="200.0" type="right_before_left" weight_num="3.0" weight_sum="0.0" x="2313.72639507" x_displacement_sum="313.726395069" y="112.692852415" y_displacement_sum="-87.3071475851" />
    <node avg_slowdown_ratio="0.0" id="node_20x03" junction="True" old_x="2000.0" old_y="300.0" type="right_before_left" weight_num="3.0" weight_sum="0.0" x="2332.87967812" x_displacement_sum="332.879678121" y="254.749256396" y_displacement_sum="-45.250743604" />
    <node avg_slowdown_ratio="0.0" id="node_20x04" junction="True" old_x="2000.0" old_y="400.0" type="right_before_left" weight_num="3.0" weight_sum="0.0" x="2341.90871723" x_displacement_sum="341.908717225" y="378.030400594" y_displacement_sum="-21.9695994059" />
    <node avg_slowdown_ratio="0.0" id="node_20x05" junction="True" old_x="2000.0" old_y="500.0" type="right_before_left" weight_num="3.0" weight_sum="0.0" x="2346.02638818" x_displacement_sum="346.026388176" y="489.721121927" y_displacement_sum="-10.278878073" />
    <node avg_slowdown_ratio="0.0" id="node_20x06" junction="True" old_x="2000.0" old_y="600.0" type="right_before_left" weight_num="3.0" weight_sum="0.0" x="2347.92897684" x_displacement_sum="347.928976845" y="595.256664388" y_displacement_sum="-4.74333561235" />
    <node avg_slowdown_ratio="0.0" id="node_20x07" junction="True" old_x="2000.0" old_y="700.0" type="right_before_left" weight_num="3.0" weight_sum="0.0" x="2348.87089307" x_displacement_sum="348.870893072" y="697.796053792" y_displacement_sum="-2.20394620794" />
    <node avg_slowdown_ratio="0.0" id="node_20x08" junction="True" old_x="2000.0" old_y="800.0" type="right_before_left" weight_num="3.0" weight_sum="0.0" x="2349.38282677" x_displacement_sum="349.382826774" y="798.975130082" y_displacement_sum="-1.02486991816" />
    <node avg_slowdown_ratio="0.0" id="node_20x09" junction="True" old_x="2000.0" old_y="900.0" type="right_before_left" weight_num="3.0" weight_sum="0.0" x="2349.65754206" x_displacement_sum="349.657542061" y="899.586214424" y_displacement_sum="-0.413785575837" />
    <node avg_slowdown_ratio="0.0" id="node_20x10" junction="True" old_x="2000.0" old_y="1000.0" type="right_before_left" weight_num="3.0" weight_sum="0.0" x="2349.7467077" x_displacement_sum="349.746707697" y="1000.0" y_displacement_sum="-3.09037517798e-12" />
    <node avg_slowdown_ratio="0.0" id="node_20x11" junction="True" old_x="2000.0" old_y="1100.0" type="right_before_left" weight_num="3.0" weight_sum="0.0" x="2349.65754206" x_displacement_sum="349.657542061" y="1100.41378558" y_displacement_sum="0.413785575799" />
    <node avg_slowdown_ratio="0.0" id="node_20x12" junction="True" old_x="2000.0" old_y="1200.0" type="right_before_left" weight_num="3.0" weight_sum="0.0" x="2349.38282677" x_displacement_sum="349.382826774" y="1201.02486992" y_displacement_sum="1.02486991829" />
    <node avg_slowdown_ratio="0.0" id="node_20x13" junction="True" old_x="2000.0" old_y="1300.0" type="right_before_left" weight_num="3.0" weight_sum="0.0" x="2348.87089307" x_displacement_sum="348.870893074" y="1302.20394621" y_displacement_sum="2.20394620816" />
    <node avg_slowdown_ratio="0.0" id="node_20x14" junction="True" old_x="2000.0" old_y="1400.0" type="right_before_left" weight_num="3.0" weight_sum="0.0" x="2347.92897685" x_displacement_sum="347.928976846" y="1404.74333561" y_displacement_sum="4.74333561244" />
    <node avg_slowdown_ratio="0.0" id="node_20x15" junction="True" old_x="2000.0" old_y="1500.0" type="right_before_left" weight_num="3.0" weight_sum="0.0" x="2346.02638818" x_displacement_sum="346.026388177" y="1510.27887807" y_displacement_sum="10.278878073" />
    <node avg_slowdown_ratio="0.0" id="node_20x16" junction="True" old_x="2000.0" old_y="1600.0" type="right_before_left" weight_num="3.0" weight_sum="0.0" x="2341.90871723" x_displacement_sum="341.908717225" y="1621.96959941" y_displacement_sum="21.9695994059" />
    <node avg_slowdown_ratio="0.0" id="node_20x17" junction="True" old_x="2000.0" old_y="1700.0" type="right_before_left" weight_num="3.0" weight_sum="0.0" x="2332.87967812" x_displacement_sum="332.879678121" y="1745.2507436" y_displacement_sum="45.2507436043" />
    <node avg_slowdown_ratio="0.0" id="node_20x18" junction="True" old_x="2000.0" old_y="1800.0" type="right_before_left" weight_num="3.0" weight_sum="0.0" x="2313.72639507" x_displacement_sum="313.72639507" y="1887.30714759" y_displacement_sum="87.3071475856" />
    <node avg_slowdown_ratio="0.0" id="node_20x19" junction="True" old_x="2000.0" old_y="1900.0" type="right_before_left" weight_num="3.0" weight_sum="0.0" x="2276.22150219" x_displacement_sum="276.221502191" y="2050.63819509" y_displacement_sum="150.638195091" />
    <node avg_slowdown_ratio="0.0" id="node_20x20" junction="True" old_x="2000.0" old_y="2000.0" type="right_before_left" weight_num="2.0" weight_sum="0.0" x="2213.3535336" x_displacement_sum="213.353533599" y="2213.3535336" y_displacement_sum="213.353533598" />
</nodes>