<?xml version='1.0' encoding='UTF-8'?>
<nodes xmlns:xsi="http://www.w3.org/2001/XMLSchema-instance" version="0.27" xsi:noNamespaceSchemaLocation="http://sumo.dlr.de/xsd/edges_file.xsd"><node avg_slowdown_ratio="0.999280057598" id="node_10x10" junction="True" old_x="1000.0" old_y="1000.0" type="right_before_left" weight_num="4.0" weight_sum="3.99712023039" x="1000.0" x_displacement_sum="3.06896285919e-15" y="1000.0" y_displacement_sum="-1.68647834281e-15" />
    <node avg_slowdown_ratio="0.0" id="node_00x00" junction="True" old_x="0.0" old_y="0.0" type="right_before_left" weight_num="2.0" weight_sum="0.0" x="-0.00461239294851" x_displacement_sum="-0.00461239294851" y="-0.00461239294851" y_displacement_sum="-0.00461239294851" />
    <node avg_slowdown_ratio="0.0" id="node_00x01" junction="True" old_x="0.0" old_y="100.0" type="right_before_left" weight_num="3.0" weight_sum="0.0" x="-0.00468456721376" x_displacement_sum="-0.00468456721376" y="99.9999995487" y_displacement_sum="-4.51264957811e-07" />
    <node avg_slowdown_ratio="0.0" id="node_00x02" junction="True" old_x="0.0" old_y="200.0" type="right_before_left" weight_num="3.0" weight_sum="0.0" x="-0.00468458676612" x_displacement_sum="-0.00468458676612" y="200.0" y_displacement_sum="-3.36371998786e-11" />
    <node avg_slowdown_ratio="0.0" id="node_00x03" junction="True" old_x="0.0" old_y="300.0" type="right_before_left" weight_num="3.0" weight_sum="0.0" x="-0.004684586768" x_displacement_sum="-0.004684586768" y="300.0" y_displacement_sum="-1.68647834281e-15" />
    <node avg_slowdown_ratio="0.0" id="node_00x04" junction="True" old_x="0.0" old_y="400.0" type="right_before_left" weight_num="3.0" weight_sum="0.0" x="-0.004684586768" x_displacement_sum="-0.004684586768" y="400.0" y_displacement_sum="-1.68647834281e-15" />
    <node avg_slowdown_ratio="0.0" id="node_00x05" junction="True" old_x="0.0" old_y="500.0" type="right_before_left" weight_num="3.0" weight_sum="0.0" x="-0.004684586768" x_displacement_sum="-0.004684586768" y="500.0" y_displacement_sum="-1.68647834281e-15" />
    <node avg_slowdown_ratio="0.0" id="node_00x06" junction="True" old_x="0.0" old_y="600.0" type="right_before_left" weight_num="3.0" weight_sum="0.0" x="-0.004684586768" x_displacement_sum="-0.004684586768" y="600.0" y_displacement_sum="-1.68647834281e-15" />
    <node avg_slowdown_ratio="0.0" id="node_00x07" junction="True" old_x="0.0" old_y="700.0" type="right_before_left" weight_num="3.0" weight_sum="0.0" x="-0.004684586768" x_displacement_sum="-0.004684586768" y="700.0" y_displacement_sum="-1.68647834281e-15" />
    <node avg_slowdown_ratio="0.0" id="node_00x08" junction="True" old_x="0.0" old_y="800.0" type="right_before_left" weight_num="3.0" weight_sum="0.0" x="-0.004684586768" x_displacement_sum="-0.004684586768" y="800.0" y_displacement_sum="-1.68647834281e-15" />
    <node avg_slowdown_ratio="0.0" id="node_00x09" junction="True" old_x="0.0" old_y="900.0" type="right_before_left" weight_num="3.0" weight_sum="0.0" x="-0.004684586768" x_displacement_sum="-0.004684586768" y="900.0" y_displacement_sum="-1.68647834281e-15" />
    <node avg_slowdown_ratio="0.0" id="node_00x10" junction="True" old_x="0.0" old_y="1000.0" type="right_before_left" weight_num="3.0" weight_sum="0.0" x="-0.004684586768" x_displacement_sum="-0.004684586768" y="1000.0" y_displacement_sum="-1.68647834281e-15" />
    <node avg_slowdown_ratio="0.0" id="node_00x11" junction="True" old_x="0.0" old_y="1100.0" type="right_before_left" weight_num="3.0" weight_sum="0.0" x="-0.004684586768" x_displacement_sum="-0.004684586768" y="1100.0" y_displacement_sum="-1.68647834281e-15" />
    <node avg_slowdown_ratio="0.0" id="node_00x12" junction="True" old_x="0.0" old_y="1200.0" type="right_before_left" weight_num="3.0" weight_sum="0.0" x="-0.004684586768" x_displacement_sum="-0.004684586768" y="1200.0" y_displacement_sum="-1.68647834281e-15" />
    <node avg_slowdown_ratio="0.0" id="node_00x13" junction="True" old_x="0.0" old_y="1300.0" type="right_before_left" weight_num="3.0" weight_sum="0.0" x="-0.004684586768" x_displacement_sum="-0.004684586768" y="1300.0" y_displacement_sum="-1.68647834281e-15" />
    <node avg_slowdown_ratio="0.0" id="node_00x14" junction="True" old_x="0.0" old_y="1400.0" type="right_before_left" weight_num="3.0" weight_sum="0.0" x="-0.004684586768" x_displacement_sum="-0.004684586768" y="1400.0" y_displacement_sum="-1.68647834281e-15" />
    <node avg_slowdown_ratio="0.0" id="node_00x15" junction="True" old_x="0.0" old_y="1500.0" type="right_before_left" weight_num="3.0" weight_sum="0.0" x="-0.004684586768" x_displacement_sum="-0.004684586768" y="1500.0" y_displacement_sum="-1.68647834281e-15" />
    <node avg_slowdown_ratio="0.0" id="node_00x16" junction="True" old_x="0.0" old_y="1600.0" type="right_before_left" weight_num="3.0" weight_sum="0.0" x="-0.004684586768" x_displacement_sum="-0.004684586768" y="1600.0" y_displacement_sum="-1.68647834281e-15" />
    <node avg_slowdown_ratio="0.0" id="node_00x17" junction="True" old_x="0.0" old_y="1700.0" type="right_before_left" weight_num="3.0" weight_sum="0.0" x="-0.004684586768" x_displacement_sum="-0.004684586768" y="1700.0" y_displacement_sum="-1.68647834281e-15" />
    <node avg_slowdown_ratio="0.0" id="node_00x18" junction="True" old_x="0.0" old_y="1800.0" type="right_before_left" weight_num="3.0" weight_sum="0.0" x="-0.00468458676612" x_displacement_sum="-0.00468458676612" y="1800.0" y_displacement_sum="3.36380375031e-11" />
    <node avg_slowdown_ratio="0.0" id="node_00x19" junction="True" old_x="0.0" old_y="1900.0" type="right_before_left" weight_num="3.0" weight_sum="0.0" x="-0.00468456721376" x_displacement_sum="-0.00468456721376" y="1900.00000045" y_displacement_sum="4.5126495698e-07" />
    <node avg_slowdown_ratio="0.0" id="node_00x20" junction="True" old_x="0.0" old_y="2000.0" type="right_before_left" weight_num="2.0" weight_sum="0.0" x="-0.00461239294851" x_displacement_sum="-0.00461239294851" y="2000.00461239" y_displacement_sum="0.00461239294851" />
    <node avg_slowdown_ratio="0.0" id="node_01x00" junction="True" old_x="100.0" old_y="0.0" type="right_before_left" weight_num="3.0" weight_sum="0.0" x="99.9999995487" x_displacement_sum="-4.51264960865e-07" y="-0.00468456721375" y_displacement_sum="-0.00468456721375" />
    <node avg_slowdown_ratio="0.0" id="node_01x01" junction="True" old_x="100.0" old_y="100.0" type="right_before_left" weight_num="4.0" weight_sum="0.0" x="99.9999995098" x_displacement_sum="-4.90166975808e-07" y="99.9999995098" y_displacement_sum="-4.90166977811e-07" />
    <node avg_slowdown_ratio="0.0" id="node_01x02" junction="True" old_x="100.0" old_y="200.0" type="right_before_left" weight_num="4.0" weight_sum="0.0" x="99.9999995097" x_displacement_sum="-4.90271092523e-07" y="200.0" y_displacement_sum="-3.91671998786e-11" />
    <node avg_slowdown_ratio="0.0" id="node_01x03" junction="True" old_x="100.0" old_y="300.0" type="right_before_left" weight_num="4.0" weight_sum="0.0" x="99.9999995097" x_displacement_sum="-4.90271136931e-07" y="300.0" y_displacement_sum="-1.68647834281e-15" />
    <node avg_slowdown_ratio="0.0" id="node_01x04" junction="True" old_x="100.0" old_y="400.0" type="right_before_left" weight_num="4.0" weight_sum="0.0" x="99.9999995097" x_displacement_sum="-4.90271136931e-07" y="400.0" y_displacement_sum="-1.68647834281e-15" />
    <node avg_slowdown_ratio="0.0" id="node_01x05" junction="True" old_x="100.0" old_y="500.0" type="right_before_left" weight_num="4.0" weight_sum="0.0" x="99.9999995097" x_displacement_sum="-4.90271136931e-07" y="500.0" y_displacement_sum="-1.68647834281e-15" />
    <node avg_slowdown_ratio="0.0" id="node_01x06" junction="True" old_x="100.0" old_y="600.0" type="right_before_left" weight_num="4.0" weight_sum="0.0" x="99.9999995097" x_displacement_sum="-4.90271136931e-07" y="600.0" y_displacement_sum="-1.68647834281e-15" />
    <node avg_slowdown_ratio="0.0" id="node_01x07" junction="True" old_x="100.0" old_y="700.0" type="right_before_left" weight_num="4.0" weight_sum="0.0" x="99.9999995097" x_displacement_sum="-4.90271136931e-07" y="700.0" y_displacement_sum="-1.68647834281e-15" />
    <node avg_slowdown_ratio="0.0" id="node_01x08" junction="True" old_x="100.0" old_y="800.0" type="right_before_left" weight_num="4.0" weight_sum="0.0" x="99.9999995097" x_displacement_sum="-4.90271136931e-07" y="800.0" y_displacement_sum="-1.68647834281e-15" />
    <node avg_slowdown_ratio="0.0" id="node_01x09" junction="True" old_x="100.0" old_y="900.0" type="right_before_left" weight_num="4.0" weight_sum="0.0" x="99.9999995097" x_displacement_sum="-4.90271136931e-07" y="900.0" y_displacement_sum="-1.68647834281e-15" />
    <node avg_slowdown_ratio="0.0" id="node_01x10" junction="True" old_x="100.0" old_y="1000.0" type="right_before_left" weight_num="4.0" weight_sum="0.0" x="99.9999995097" x_displacement_sum="-4.90271136931e-07" y="1000.0" y_displacement_sum="-1.68647834281e-15" />
    <node avg_slowdown_ratio="0.0" id="node_01x11" junction="True" old_x="100.0" old_y="1100.0" type="right_before_left" weight_num="4.0" weight_sum="0.0" x="99.9999995097" x_displacement_sum="-4.90271136931e-07" y="1100.0" y_displacement_sum="-1.68647834281e-15" />
    <node avg_slowdown_ratio="0.0" id="node_01x12" junction="True" old_x="100.0" old_y="1200.0" type="right_before_left" weight_num="4.0" weight_sum="0.0" x="99.9999995097" x_displacement_sum="-4.90271136931e-07" y="1200.0" y_displacement_sum="-1.68647834281e-15" />
    <node avg_slowdown_ratio="0.0" id="node_01x13" junction="True" old_x="100.0" old_y="1300.0" type="right_before_left" weight_num="4.0" weight_sum="0.0" x="99.9999995097" x_displacement_sum="-4.90271136931e-07" y="1300.0" y_displacement_sum="-1.68647834281e-15" />
    <node avg_slowdown_ratio="0.0" id="node_01x14" junction="True" old_x="100.0" old_y="1400.0" type="right_before_left" weight_num="4.0" weight_sum="0.0" x="99.9999995097" x_displacement_sum="-4.90271136931e-07" y="1400.0" y_displacement_sum="-1.68647834281e-15" />
    <node avg_slowdown_ratio="0.0" id="node_01x15" junction="True" old_x="100.0" old_y="1500.0" type="right_before_left" weight_num="4.0" weight_sum="0.0" x="99.9999995097" x_displacement_sum="-4.90271136931e-07" y="1500.0" y_displacement_sum="-1.68647834281e-15" />
    <node avg_slowdown_ratio="0.0" id="node_01x16" junction="True" old_x="100.0" old_y="1600.0" type="right_before_left" weight_num="4.0" weight_sum="0.0" x="99.9999995097" x_displacement_sum="-4.90271136931e-07" y="1600.0" y_displacement_sum="-1.68647834281e-15" />
    <node avg_slowdown_ratio="0.0" id="node_01x17" junction="True" old_x="100.0" old_y="1700.0" type="right_before_left" weight_num="4.0" weight_sum="0.0" x="99.9999995097" x_displacement_sum="-4.90271136931e-07" y="1700.0" y_displacement_sum="-1.68647834281e-15" />
    <node avg_slowdown_ratio="0.0" id="node_01x18" junction="True" old_x="100.0" old_y="1800.0" type="right_before_left" weight_num="4.0" weight_sum="0.0" x="99.9999995097" x_displacement_sum="-4.90271089552e-07" y="1800.0" y_displacement_sum="3.91680375031e-11" />
    <node avg_slowdown_ratio="0.0" id="node_01x19" junction="True" old_x="100.0" old_y="1900.0" type="right_before_left" weight_num="4.0" weight_sum="0.0" x="99.9999995098" x_displacement_sum="-4.90166969821e-07" y="1900.00000049" y_displacement_sum="4.9016697698e-07" />
    <node avg_slowdown_ratio="0.0" id="node_01x20" junction="True" old_x="100.0" old_y="2000.0" type="right_before_left" weight_num="3.0" weight_sum="0.0" x="99.9999995487" x_displacement_sum="-4.51264957772e-07" y="2000.00468457" y_displacement_sum="0.00468456721375" />
    <node avg_slowdown_ratio="0.0" id="node_02x00" junction="True" old_x="200.0" old_y="0.0" type="right_before_left" weight_num="3.0" weight_sum="0.0" x="200.0" x_displacement_sum="-3.3640863993e-11" y="-0.00468458676611" y_displacement_sum="-0.00468458676611" />
    <node avg_slowdown_ratio="0.0" id="node_02x01" junction="True" old_x="200.0" old_y="100.0" type="right_before_left" weight_num="4.0" weight_sum="0.0" x="200.0" x_displacement_sum="-3.91758066556e-11" y="99.9999995097" y_displacement_sum="-4.90271087811e-07" />
    <node avg_slowdown_ratio="0.0" id="node_02x02" junction="True" old_x="200.0" old_y="200.0" type="right_before_left" weight_num="4.0" weight_sum="0.0" x="200.0" x_displacement_sum="-3.92425220371e-11" y="200.0" y_displacement_sum="-3.92371998786e-11" />
    <node avg_slowdown_ratio="0.0" id="node_02x03" junction="True" old_x="200.0" old_y="300.0" type="right_before_left" weight_num="4.0" weight_sum="0.0" x="200.0" x_displacement_sum="-3.92369310371e-11" y="300.0" y_displacement_sum="-1.68647834281e-15" />
    <node avg_slowdown_ratio="0.0" id="node_02x04" junction="True" old_x="200.0" old_y="400.0" type="right_before_left" weight_num="4.0" weight_sum="0.0" x="200.0" x_displacement_sum="-3.92369310371e-11" y="400.0" y_displacement_sum="-1.68647834281e-15" />
    <node avg_slowdown_ratio="0.0" id="node_02x05" junction="True" old_x="200.0" old_y="500.0" type="right_before_left" weight_num="4.0" weight_sum="0.0" x="200.0" x_displacement_sum="-3.92369310371e-11" y="500.0" y_displacement_sum="-1.68647834281e-15" />
    <node avg_slowdown_ratio="0.0" id="node_02x06" junction="True" old_x="200.0" old_y="600.0" type="right_before_left" weight_num="4.0" weight_sum="0.0" x="200.0" x_displacement_sum="-3.92369310371e-11" y="600.0" y_displacement_sum="-1.68647834281e-15" />
    <node avg_slowdown_ratio="0.0" id="node_02x07" junction="True" old_x="200.0" old_y="700.0" type="right_before_left" weight_num="4.0" weight_sum="0.0" x="200.0" x_displacement_sum="-3.95869310371e-11" y="700.0" y_displacement_sum="-1.31686478343e-13" />
    <node avg_slowdown_ratio="0.0" id="node_02x08" junction="True" old_x="200.0" old_y="800.0" type="right_before_left" weight_num="4.0" weight_sum="0.0" x="200.0" x_displacement_sum="-4.54569310375e-11" y="800.0" y_displacement_sum="-1.55168647835e-12" />
    <node avg_slowdown_ratio="0.0" id="node_02x09" junction="True" old_x="200.0" old_y="900.0" type="right_before_left" weight_num="4.0" weight_sum="0.0" x="200.0" x_displacement_sum="-7.79569310375e-11" y="900.0" y_displacement_sum="-4.84168647855e-12" />
    <node avg_slowdown_ratio="0.0" id="node_02x10" junction="True" old_x="200.0" old_y="1000.0" type="right_before_left" weight_num="4.0" weight_sum="0.0" x="200.0" x_displacement_sum="-1.11536931037e-10" y="1000.0" y_displacement_sum="-1.68647834281e-15" />
    <node avg_slowdown_ratio="0.0" id="node_02x11" junction="True" old_x="200.0" old_y="1100.0" type="right_before_left" weight_num="4.0" weight_sum="0.0" x="200.0" x_displacement_sum="-7.79569310375e-11" y="1100.0" y_displacement_sum="4.83831352165e-12" />
    <node avg_slowdown_ratio="0.0" id="node_02x12" junction="True" old_x="200.0" old_y="1200.0" type="right_before_left" weight_num="4.0" weight_sum="0.0" x="200.0" x_displacement_sum="-4.54569310375e-11" y="1200.0" y_displacement_sum="1.55831352165e-12" />
    <node avg_slowdown_ratio="0.0" id="node_02x13" junction="True" old_x="200.0" old_y="1300.0" type="right_before_left" weight_num="4.0" weight_sum="0.0" x="200.0" x_displacement_sum="-3.95869310371e-11" y="1300.0" y_displacement_sum="1.28313521647e-13" />
    <node avg_slowdown_ratio="0.0" id="node_02x14" junction="True" old_x="200.0" old_y="1400.0" type="right_before_left" weight_num="4.0" weight_sum="0.0" x="200.0" x_displacement_sum="-3.92369310371e-11" y="1400.0" y_displacement_sum="-1.68647834281e-15" />
    <node avg_slowdown_ratio="0.0" id="node_02x15" junction="True" old_x="200.0" old_y="1500.0" type="right_before_left" weight_num="4.0" weight_sum="0.0" x="200.0" x_displacement_sum="-3.92369310371e-11" y="1500.0" y_displacement_sum="-1.68647834281e-15" />
    <node avg_slowdown_ratio="0.0" id="node_02x16" junction="True" old_x="200.0" old_y="1600.0" type="right_before_left" weight_num="4.0" weight_sum="0.0" x="200.0" x_displacement_sum="-3.92369310371e-11" y="1600.0" y_displacement_sum="-1.68647834281e-15" />
    <node avg_slowdown_ratio="0.0" id="node_02x17" junction="True" old_x="200.0" old_y="1700.0" type="right_before_left" weight_num="4.0" weight_sum="0.0" x="200.0" x_displacement_sum="-3.92369310371e-11" y="1700.0" y_displacement_sum="-1.68647834281e-15" />
    <node avg_slowdown_ratio="0.0" id="node_02x18" junction="True" old_x="200.0" old_y="1800.0" type="right_before_left" weight_num="4.0" weight_sum="0.0" x="200.0" x_displacement_sum="-3.92295521161e-11" y="1800.0" y_displacement_sum="3.92380375031e-11" />
    <node avg_slowdown_ratio="0.0" id="node_02x19" junction="True" old_x="200.0" old_y="1900.0" type="right_before_left" weight_num="4.0" weight_sum="0.0" x="200.0" x_displacement_sum="-3.91598208672e-11" y="1900.00000049" y_displacement_sum="4.9027108698e-07" />
    <node avg_slowdown_ratio="0.0" id="node_02x20" junction="True" old_x="200.0" old_y="2000.0" type="right_before_left" weight_num="3.0" weight_sum="0.0" x="200.0" x_displacement_sum="-3.36377711961e-11" y="2000.00468459" y_displacement_sum="0.00468458676611" />
    <node avg_slowdown_ratio="0.0" id="node_03x00" junction="True" old_x="300.0" old_y="0.0" type="right_before_left" weight_num="3.0" weight_sum="0.0" x="300.0" x_displacement_sum="-8.63993040809e-16" y="-0.004684586768" y_displacement_sum="-0.004684586768" />
    <node avg_slowdown_ratio="0.0" id="node_03x01" junction="True" old_x="300.0" old_y="100.0" type="right_before_left" weight_num="4.0" weight_sum="0.0" x="300.0" x_displacement_sum="-5.80665564081e-15" y="99.9999995097" y_displacement_sum="-4.90271137811e-07" />
    <node avg_slowdown_ratio="0.0" id="node_03x02" junction="True" old_x="300.0" old_y="200.0" type="right_before_left" weight_num="4.0" weight_sum="0.0" x="300.0" x_displacement_sum="-2.52203714081e-15" y="200.0" y_displacement_sum="-3.92371998786e-11" />
    <node avg_slowdown_ratio="0.0" id="node_03x03" junction="True" old_x="300.0" old_y="300.0" type="right_before_left" weight_num="4.0" weight_sum="0.0" x="300.0" x_displacement_sum="3.06896285919e-15" y="300.0" y_displacement_sum="-1.68647834281e-15" />
    <node avg_slowdown_ratio="0.0" id="node_03x04" junction="True" old_x="300.0" old_y="400.0" type="right_before_left" weight_num="4.0" weight_sum="0.0" x="300.0" x_displacement_sum="3.06896285919e-15" y="400.0" y_displacement_sum="-1.68647834281e-15" />
    <node avg_slowdown_ratio="0.0" id="node_03x05" junction="True" old_x="300.0" old_y="500.0" type="right_before_left" weight_num="4.0" weight_sum="0.0" x="300.0" x_displacement_sum="-1.56931037141e-13" y="500.0" y_displacement_sum="-1.11686478343e-13" />
    <node avg_slowdown_ratio="0.0" id="node_03x06" junction="True" old_x="300.0" old_y="600.0" type="right_before_left" weight_num="4.0" weight_sum="0.0" x="300.0" x_displacement_sum="-3.38869310371e-11" y="600.0" y_displacement_sum="-1.93616864786e-11" />
    <node avg_slowdown_ratio="0.0" id="node_03x07" junction="True" old_x="300.0" old_y="700.0" type="right_before_left" weight_num="4.0" weight_sum="0.0" x="299.999999997" x_displacement_sum="-2.94650693103e-09" y="699.999999999" y_displacement_sum="-1.26279168648e-09" />
    <node avg_slowdown_ratio="0.0" id="node_03x08" junction="True" old_x="300.0" old_y="800.0" type="right_before_left" weight_num="4.0" weight_sum="0.0" x="299.999999915" x_displacement_sum="-8.45421469312e-08" y="799.999999976" y_displacement_sum="-2.41549016866e-08" />
    <node avg_slowdown_ratio="0.0" id="node_03x09" junction="True" old_x="300.0" old_y="900.0" type="right_before_left" weight_num="4.0" weight_sum="0.0" x="299.999999316" x_displacement_sum="-6.83803656932e-07" y="899.999999902" y_displacement_sum="-9.76862416866e-08" />
    <node avg_slowdown_ratio="0.0" id="node_03x10" junction="True" old_x="300.0" old_y="1000.0" type="right_before_left" weight_num="4.0" weight_sum="0.0" x="299.999998608" x_displacement_sum="-1.39179427692e-06" y="1000.0" y_displacement_sum="-1.68647834281e-15" />
    <node avg_slowdown_ratio="0.0" id="node_03x11" junction="True" old_x="300.0" old_y="1100.0" type="right_before_left" weight_num="4.0" weight_sum="0.0" x="299.999999316" x_displacement_sum="-6.83803656932e-07" y="1100.0000001" y_displacement_sum="9.76862383137e-08" />
    <node avg_slowdown_ratio="0.0" id="node_03x12" junction="True" old_x="300.0" old_y="1200.0" type="right_before_left" weight_num="4.0" weight_sum="0.0" x="299.999999915" x_displacement_sum="-8.45421469312e-08" y="1200.00000002" y_displacement_sum="2.41548983134e-08" />
    <node avg_slowdown_ratio="0.0" id="node_03x13" junction="True" old_x="300.0" old_y="1300.0" type="right_before_left" weight_num="4.0" weight_sum="0.0" x="299.999999997" x_displacement_sum="-2.94650693103e-09" y="1300.0" y_displacement_sum="1.26278831352e-09" />
    <node avg_slowdown_ratio="0.0" id="node_03x14" junction="True" old_x="300.0" old_y="1400.0" type="right_before_left" weight_num="4.0" weight_sum="0.0" x="300.0" x_displacement_sum="-3.38869310371e-11" y="1400.0" y_displacement_sum="1.93583135216e-11" />
    <node avg_slowdown_ratio="0.0" id="node_03x15" junction="True" old_x="300.0" old_y="1500.0" type="right_before_left" weight_num="4.0" weight_sum="0.0" x="300.0" x_displacement_sum="-1.56931037141e-13" y="1500.0" y_displacement_sum="1.08313521647e-13" />
    <node avg_slowdown_ratio="0.0" id="node_03x16" junction="True" old_x="300.0" old_y="1600.0" type="right_before_left" weight_num="4.0" weight_sum="0.0" x="300.0" x_displacement_sum="3.06896285919e-15" y="1600.0" y_displacement_sum="-1.68647834281e-15" />
    <node avg_slowdown_ratio="0.0" id="node_03x17" junction="True" old_x="300.0" old_y="1700.0" type="right_before_left" weight_num="4.0" weight_sum="0.0" x="300.0" x_displacement_sum="3.06896285919e-15" y="1700.0" y_displacement_sum="-1.68647834281e-15" />
    <node avg_slowdown_ratio="0.0" id="node_03x18" junction="True" old_x="300.0" old_y="1800.0" type="right_before_left" weight_num="4.0" weight_sum="0.0" x="300.0" x_displacement_sum="4.47883859191e-16" y="1800.0" y_displacement_sum="3.92380375031e-11" />
    <node avg_slowdown_ratio="0.0" id="node_03x19" junction="True" old_x="300.0" old_y="1900.0" type="right_before_left" weight_num="4.0" weight_sum="0.0" x="300.0" x_displacement_sum="1.01791328367e-14" y="1900.00000049" y_displacement_sum="4.9027113698e-07" />
    <node avg_slowdown_ratio="0.0" id="node_03x20" junction="True" old_x="300.0" old_y="2000.0" type="right_before_left" weight_num="3.0" weight_sum="0.0" x="300.0" x_displacement_sum="2.22780386855e-15" y="2000.00468459" y_displacement_sum="0.004684586768" />
    <node avg_slowdown_ratio="0.0" id="node_04x00" junction="True" old_x="400.0" old_y="0.0" type="right_before_left" weight_num="3.0" weight_sum="0.0" x="400.0" x_displacement_sum="-8.63993040809e-16" y="-0.004684586768" y_displacement_sum="-0.004684586768" />
    <node avg_slowdown_ratio="0.0" id="node_04x01" junction="True" old_x="400.0" old_y="100.0" type="right_before_left" weight_num="4.0" weight_sum="0.0" x="400.0" x_displacement_sum="-5.80665564081e-15" y="99.9999995097" y_displacement_sum="-4.90271137811e-07" />
    <node avg_slowdown_ratio="0.0" id="node_04x02" junction="True" old_x="400.0" old_y="200.0" type="right_before_left" weight_num="4.0" weight_sum="0.0" x="400.0" x_displacement_sum="-2.52203714081e-15" y="200.0" y_displacement_sum="-3.92371998786e-11" />
    <node avg_slowdown_ratio="0.0" id="node_04x03" junction="True" old_x="400.0" old_y="300.0" type="right_before_left" weight_num="4.0" weight_sum="0.0" x="400.0" x_displacement_sum="3.06896285919e-15" y="300.0" y_displacement_sum="-1.68647834281e-15" />
    <node avg_slowdown_ratio="0.0" id="node_04x04" junction="True" old_x="400.0" old_y="400.0" type="right_before_left" weight_num="4.0" weight_sum="0.0" x="400.0" x_displacement_sum="-3.96931037141e-13" y="400.0" y_displacement_sum="-4.01686478353e-13" />
    <node avg_slowdown_ratio="0.0" id="node_04x05" junction="True" old_x="400.0" old_y="500.0" type="right_before_left" weight_num="4.0" weight_sum="0.0" x="400.0" x_displacement_sum="-3.61176931037e-10" y="500.0" y_displacement_sum="-3.00981686478e-10" />
    <node avg_slowdown_ratio="0.0" id="node_04x06" junction="True" old_x="400.0" old_y="600.0" type="right_before_left" weight_num="4.0" weight_sum="0.0" x="399.999999856" x_displacement_sum="-1.44484556932e-07" y="599.999999904" y_displacement_sum="-9.63230416866e-08" />
    <node avg_slowdown_ratio="0.0" id="node_04x07" junction="True" old_x="400.0" old_y="700.0" type="right_before_left" weight_num="4.0" weight_sum="0.0" x="399.999977926" x_displacement_sum="-2.20740725667e-05" y="699.999988963" y_displacement_sum="-1.10370362816e-05" />
    <node avg_slowdown_ratio="0.0" id="node_04x08" junction="True" old_x="400.0" old_y="800.0" type="right_before_left" weight_num="4.0" weight_sum="0.0" x="399.998976597" x_displacement_sum="-0.00102340254584" y="799.999658866" y_displacement_sum="-0.000341134181951" />
    <node avg_slowdown_ratio="0.0" id="node_04x09" junction="True" old_x="400.0" old_y="900.0" type="right_before_left" weight_num="4.0" weight_sum="0.0" x="399.988514982" x_displacement_sum="-0.0114850176076" y="899.99808583" y_displacement_sum="-0.00191416960127" />
    <node avg_slowdown_ratio="0.0" id="node_04x10" junction="True" old_x="400.0" old_y="1000.0" type="right_before_left" weight_num="4.0" weight_sum="0.0" x="399.973724314" x_displacement_sum="-0.0262756858802" y="1000.0" y_displacement_sum="-1.68647834281e-15" />
    <node avg_slowdown_ratio="0.0" id="node_04x11" junction="True" old_x="400.0" old_y="1100.0" type="right_before_left" weight_num="4.0" weight_sum="0.0" x="399.988514982" x_displacement_sum="-0.0114850176076" y="1100.00191417" y_displacement_sum="0.00191416960127" />
    <node avg_slowdown_ratio="0.0" id="node_04x12" junction="True" old_x="400.0" old_y="1200.0" type="right_before_left" weight_num="4.0" weight_sum="0.0" x="399.998976597" x_displacement_sum="-0.00102340254584" y="1200.00034113" y_displacement_sum="0.000341134181949" />
    <node avg_slowdown_ratio="0.0" id="node_04x13" junction="True" old_x="400.0" old_y="1300.0" type="right_before_left" weight_num="4.0" weight_sum="0.0" x="399.999977926" x_displacement_sum="-2.20740725667e-05" y="1300.00001104" y_displacement_sum="1.10370362884e-05" />
    <node avg_slowdown_ratio="0.0" id="node_04x14" junction="True" old_x="400.0" old_y="1400.0" type="right_before_left" weight_num="4.0" weight_sum="0.0" x="399.999999856" x_displacement_sum="-1.44484556932e-07" y="1400.0000001" y_displacement_sum="9.63230383137e-08" />
    <node avg_slowdown_ratio="0.0" id="node_04x15" junction="True" old_x="400.0" old_y="1500.0" type="right_before_left" weight_num="4.0" weight_sum="0.0" x="400.0" x_displacement_sum="-3.61176931037e-10" y="1500.0" y_displacement_sum="3.00978313522e-10" />
    <node avg_slowdown_ratio="0.0" id="node_04x16" junction="True" old_x="400.0" old_y="1600.0" type="right_before_left" weight_num="4.0" weight_sum="0.0" x="400.0" x_displacement_sum="-3.96931037141e-13" y="1600.0" y_displacement_sum="3.98313521647e-13" />
    <node avg_slowdown_ratio="0.0" id="node_04x17" junction="True" old_x="400.0" old_y="1700.0" type="right_before_left" weight_num="4.0" weight_sum="0.0" x="400.0" x_displacement_sum="3.06896285919e-15" y="1700.0" y_displacement_sum="-1.68647834281e-15" />
    <node avg_slowdown_ratio="0.0" id="node_04x18" junction="True" old_x="400.0" old_y="1800.0" type="right_before_left" weight_num="4.0" weight_sum="0.0" x="400.0" x_displacement_sum="4.47883859191e-16" y="1800.0" y_displacement_sum="3.92380375031e-11" />
    <node avg_slowdown_ratio="0.0" id="node_04x19" junction="True" old_x="400.0" old_y="1900.0" type="right_before_left" weight_num="4.0" weight_sum="0.0" x="400.0" x_displacement_sum="1.01791328367e-14" y="1900.00000049" y_displacement_sum="4.9027113698e-07" />
    <node avg_slowdown_ratio="0.0" id="node_04x20" junction="True" old_x="400.0" old_y="2000.0" type="right_before_left" weight_num="3.0" weight_sum="0.0" x="400.0" x_displacement_sum="2.22780386855e-15" y="2000.00468459" y_displacement_sum="0.004684586768" />
    <node avg_slowdown_ratio="0.0" id="node_05x00" junction="True" old_x="500.0" old_y="0.0" type="right_before_left" weight_num="3.0" weight_sum="0.0" x="500.0" x_displacement_sum="-8.63993040809e-16" y="-0.004684586768" y_displacement_sum="-0.004684586768" />
    <node avg_slowdown_ratio="0.0" id="node_05x01" junction="True" old_x="500.0" old_y="100.0" type="right_before_left" weight_num="4.0" weight_sum="0.0" x="500.0" x_displacement_sum="-5.80665564081e-15" y="99.9999995097" y_displacement_sum="-4.90271137811e-07" />
    <node avg_slowdown_ratio="0.0" id="node_05x02" junction="True" old_x="500.0" old_y="200.0" type="right_before_left" weight_num="4.0" weight_sum="0.0" x="500.0" x_displacement_sum="-2.52203714081e-15" y="200.0" y_displacement_sum="-3.92371998786e-11" />
    <node avg_slowdown_ratio="0.0" id="node_05x03" junction="True" old_x="500.0" old_y="300.0" type="right_before_left" weight_num="4.0" weight_sum="0.0" x="500.0" x_displacement_sum="-1.06931037141e-13" y="300.0" y_displacement_sum="-1.51686378343e-13" />
    <node avg_slowdown_ratio="0.0" id="node_05x04" junction="True" old_x="500.0" old_y="400.0" type="right_before_left" weight_num="4.0" weight_sum="0.0" x="500.0" x_displacement_sum="-3.00976931037e-10" y="400.0" y_displacement_sum="-3.61181686478e-10" />
    <node avg_slowdown_ratio="0.0" id="node_05x05" junction="True" old_x="500.0" old_y="500.0" type="right_before_left" weight_num="4.0" weight_sum="0.0" x="499.999999512" x_displacement_sum="-4.88431186931e-07" y="499.999999512" y_displacement_sum="-4.88431181687e-07" />
    <node avg_slowdown_ratio="0.0" id="node_05x06" junction="True" old_x="500.0" old_y="600.0" type="right_before_left" weight_num="4.0" weight_sum="0.0" x="499.999611273" x_displacement_sum="-0.000388727422476" y="599.999689018" y_displacement_sum="-0.000310981937981" />
    <node avg_slowdown_ratio="0.0" id="node_05x07" junction="True" old_x="500.0" old_y="700.0" type="right_before_left" weight_num="4.0" weight_sum="0.0" x="499.881298745" x_displacement_sum="-0.118701255442" y="699.928779247" y_displacement_sum="-0.0712207532652" />
    <node avg_slowdown_ratio="0.0" id="node_05x08" junction="True" old_x="500.0" old_y="800.0" type="right_before_left" weight_num="4.0" weight_sum="0.0" x="489.959001852" x_displacement_sum="-10.0409981482" y="795.983600741" y_displacement_sum="-4.01639925926" />
    <node avg_slowdown_ratio="0.0" id="node_05x09" junction="True" old_x="500.0" old_y="900.0" type="right_before_left" weight_num="4.0" weight_sum="0.0" x="368.088509791" x_displacement_sum="-131.911490209" y="873.617701958" y_displacement_sum="-26.3822980417" />
    <node avg_slowdown_ratio="0.0" id="node_05x10" junction="True" old_x="500.0" old_y="1000.0" type="right_before_left" weight_num="4.0" weight_sum="0.0" x="254.499154192" x_displacement_sum="-245.500845808" y="1000.0" y_displacement_sum="-1.68647834281e-15" />
    <node avg_slowdown_ratio="0.0" id="node_05x11" junction="True" old_x="500.0" old_y="1100.0" type="right_before_left" weight_num="4.0" weight_sum="0.0" x="368.088509791" x_displacement_sum="-131.911490209" y="1126.38229804" y_displacement_sum="26.3822980417" />
    <node avg_slowdown_ratio="0.0" id="node_05x12" junction="True" old_x="500.0" old_y="1200.0" type="right_before_left" weight_num="4.0" weight_sum="0.0" x="489.959001852" x_displacement_sum="-10.0409981482" y="1204.01639926" y_displacement_sum="4.01639925926" />
    <node avg_slowdown_ratio="0.0" id="node_05x13" junction="True" old_x="500.0" old_y="1300.0" type="right_before_left" weight_num="4.0" weight_sum="0.0" x="499.881298745" x_displacement_sum="-0.118701255442" y="1300.07122075" y_displacement_sum="0.0712207532652" />
    <node avg_slowdown_ratio="0.0" id="node_05x14" junction="True" old_x="500.0" old_y="1400.0" type="right_before_left" weight_num="4.0" weight_sum="0.0" x="499.999611273" x_displacement_sum="-0.000388727422476" y="1400.00031098" y_displacement_sum="0.000310981937979" />
    <node avg_slowdown_ratio="0.0" id="node_05x15" junction="True" old_x="500.0" old_y="1500.0" type="right_before_left" weight_num="4.0" weight_sum="0.0" x="499.999999512" x_displacement_sum="-4.88431186931e-07" y="1500.00000049" y_displacement_sum="4.88431188313e-07" />
    <node avg_slowdown_ratio="0.0" id="node_05x16" junction="True" old_x="500.0" old_y="1600.0" type="right_before_left" weight_num="4.0" weight_sum="0.0" x="500.0" x_displacement_sum="-3.00976931037e-10" y="1600.0" y_displacement_sum="3.61178313522e-10" />
    <node avg_slowdown_ratio="0.0" id="node_05x17" junction="True" old_x="500.0" old_y="1700.0" type="right_before_left" weight_num="4.0" weight_sum="0.0" x="500.0" x_displacement_sum="-1.06931037141e-13" y="1700.0" y_displacement_sum="1.58313521647e-13" />
    <node avg_slowdown_ratio="0.0" id="node_05x18" junction="True" old_x="500.0" old_y="1800.0" type="right_before_left" weight_num="4.0" weight_sum="0.0" x="500.0" x_displacement_sum="4.47883859191e-16" y="1800.0" y_displacement_sum="3.92380375031e-11" />
    <node avg_slowdown_ratio="0.0" id="node_05x19" junction="True" old_x="500.0" old_y="1900.0" type="right_before_left" weight_num="4.0" weight_sum="0.0" x="500.0" x_displacement_sum="1.01791328367e-14" y="1900.00000049" y_displacement_sum="4.9027113698e-07" />
    <node avg_slowdown_ratio="0.0" id="node_05x20" junction="True" old_x="500.0" old_y="2000.0" type="right_before_left" weight_num="3.0" weight_sum="0.0" x="500.0" x_displacement_sum="2.22780386855e-15" y="2000.00468459" y_displacement_sum="0.004684586768" />
    <node avg_slowdown_ratio="0.0" id="node_06x00" junction="True" old_x="600.0" old_y="0.0" type="right_before_left" weight_num="3.0" weight_sum="0.0" x="600.0" x_displacement_sum="-8.63993040809e-16" y="-0.004684586768" y_displacement_sum="-0.004684586768" />
    <node avg_slowdown_ratio="0.0" id="node_06x01" junction="True" old_x="600.0" old_y="100.0" type="right_before_left" weight_num="4.0" weight_sum="0.0" x="600.0" x_displacement_sum="-5.80665564081e-15" y="99.9999995097" y_displacement_sum="-4.90271137811e-07" />
    <node avg_slowdown_ratio="0.0" id="node_06x02" junction="True" old_x="600.0" old_y="200.0" type="right_before_left" weight_num="4.0" weight_sum="0.0" x="600.0" x_displacement_sum="-2.52203714081e-15" y="200.0" y_displacement_sum="-3.92371998786e-11" />
    <node avg_slowdown_ratio="0.0" id="node_06x03" junction="True" old_x="600.0" old_y="300.0" type="right_before_left" weight_num="4.0" weight_sum="0.0" x="600.0" x_displacement_sum="-1.93669310371e-11" y="300.0" y_displacement_sum="-3.38816864786e-11" />
    <node avg_slowdown_ratio="0.0" id="node_06x04" junction="True" old_x="600.0" old_y="400.0" type="right_before_left" weight_num="4.0" weight_sum="0.0" x="599.999999904" x_displacement_sum="-9.63230369312e-08" y="399.999999856" y_displacement_sum="-1.44484561687e-07" />
    <node avg_slowdown_ratio="0.0" id="node_06x05" junction="True" old_x="600.0" old_y="500.0" type="right_before_left" weight_num="4.0" weight_sum="0.0" x="599.999689018" x_displacement_sum="-0.000310981937976" y="499.999611273" y_displacement_sum="-0.000388727422471" />
    <node avg_slowdown_ratio="0.0" id="node_06x06" junction="True" old_x="600.0" old_y="600.0" type="right_before_left" weight_num="4.0" weight_sum="0.0" x="599.459049963" x_displacement_sum="-0.540950036545" y="599.459049963" y_displacement_sum="-0.540950036545" />
    <node avg_slowdown_ratio="0.0" id="node_06x07" junction="True" old_x="600.0" old_y="700.0" type="right_before_left" weight_num="4.0" weight_sum="0.0" x="403.599323354" x_displacement_sum="-196.400676646" y="552.699492515" y_displacement_sum="-147.300507485" />
    <node avg_slowdown_ratio="0.0" id="node_06x08" junction="True" old_x="600.0" old_y="800.0" type="right_before_left" weight_num="4.0" weight_sum="0.0" x="202.103386943" x_displacement_sum="-397.896613057" y="601.051693471" y_displacement_sum="-198.948306529" />
    <node avg_slowdown_ratio="0.0" id="node_06x09" junction="True" old_x="600.0" old_y="900.0" type="right_before_left" weight_num="4.0" weight_sum="0.0" x="200.064464329" x_displacement_sum="-399.935535671" y="800.016116082" y_displacement_sum="-99.9838839178" />
    <node avg_slowdown_ratio="0.0" id="node_06x10" junction="True" old_x="600.0" old_y="1000.0" type="right_before_left" weight_num="4.0" weight_sum="0.0" x="200.018824701" x_displacement_sum="-399.981175299" y="1000.0" y_displacement_sum="-1.68647834281e-15" />
    <node avg_slowdown_ratio="0.0" id="node_06x11" junction="True" old_x="600.0" old_y="1100.0" type="right_before_left" weight_num="4.0" weight_sum="0.0" x="200.064464329" x_displacement_sum="-399.935535671" y="1199.98388392" y_displacement_sum="99.9838839178" />
    <node avg_slowdown_ratio="0.0" id="node_06x12" junction="True" old_x="600.0" old_y="1200.0" type="right_before_left" weight_num="4.0" weight_sum="0.0" x="202.103386943" x_displacement_sum="-397.896613057" y="1398.94830653" y_displacement_sum="198.948306529" />
    <node avg_slowdown_ratio="0.0" id="node_06x13" junction="True" old_x="600.0" old_y="1300.0" type="right_before_left" weight_num="4.0" weight_sum="0.0" x="403.599323354" x_displacement_sum="-196.400676646" y="1447.30050749" y_displacement_sum="147.300507485" />
    <node avg_slowdown_ratio="0.0" id="node_06x14" junction="True" old_x="600.0" old_y="1400.0" type="right_before_left" weight_num="4.0" weight_sum="0.0" x="599.459049963" x_displacement_sum="-0.540950036545" y="1400.54095004" y_displacement_sum="0.540950036545" />
    <node avg_slowdown_ratio="0.0" id="node_06x15" junction="True" old_x="600.0" old_y="1500.0" type="right_before_left" weight_num="4.0" weight_sum="0.0" x="599.999689018" x_displacement_sum="-0.000310981937976" y="1500.00038873" y_displacement_sum="0.000388727422469" />
    <node avg_slowdown_ratio="0.0" id="node_06x16" junction="True" old_x="600.0" old_y="1600.0" type="right_before_left" weight_num="4.0" weight_sum="0.0" x="599.999999904" x_displacement_sum="-9.63230369312e-08" y="1600.00000014" y_displacement_sum="1.44484558313e-07" />
    <node avg_slowdown_ratio="0.0" id="node_06x17" junction="True" old_x="600.0" old_y="1700.0" type="right_before_left" weight_num="4.0" weight_sum="0.0" x="600.0" x_displacement_sum="-1.93669310371e-11" y="1700.0" y_displacement_sum="3.38883135216e-11" />
    <node avg_slowdown_ratio="0.0" id="node_06x18" junction="True" old_x="600.0" old_y="1800.0" type="right_before_left" weight_num="4.0" weight_sum="0.0" x="600.0" x_displacement_sum="4.47883859191e-16" y="1800.0" y_displacement_sum="3.92380375031e-11" />
    <node avg_slowdown_ratio="0.0" id="node_06x19" junction="True" old_x="600.0" old_y="1900.0" type="right_before_left" weight_num="4.0" weight_sum="0.0" x="600.0" x_displacement_sum="1.01791328367e-14" y="1900.00000049" y_displacement_sum="4.9027113698e-07" />
    <node avg_slowdown_ratio="0.0" id="node_06x20" junction="True" old_x="600.0" old_y="2000.0" type="right_before_left" weight_num="3.0" weight_sum="0.0" x="600.0" x_displacement_sum="2.22780386855e-15" y="2000.00468459" y_displacement_sum="0.004684586768" />
    <node avg_slowdown_ratio="0.0" id="node_07x00" junction="True" old_x="700.0" old_y="0.0" type="right_before_left" weight_num="3.0" weight_sum="0.0" x="700.0" x_displacement_sum="-8.63993040809e-16" y="-0.004684586768" y_displacement_sum="-0.004684586768" />
    <node avg_slowdown_ratio="0.0" id="node_07x01" junction="True" old_x="700.0" old_y="100.0" type="right_before_left" weight_num="4.0" weight_sum="0.0" x="700.0" x_displacement_sum="-5.80665564081e-15" y="99.9999995097" y_displacement_sum="-4.90271137811e-07" />
    <node avg_slowdown_ratio="0.0" id="node_07x02" junction="True" old_x="700.0" old_y="200.0" type="right_before_left" weight_num="4.0" weight_sum="0.0" x="700.0" x_displacement_sum="-1.32522037141e-13" y="200.0" y_displacement_sum="-3.95871998786e-11" />
    <node avg_slowdown_ratio="0.0" id="node_07x03" junction="True" old_x="700.0" old_y="300.0" type="right_before_left" weight_num="4.0" weight_sum="0.0" x="699.999999999" x_displacement_sum="-1.26278693103e-09" y="299.999999997" y_displacement_sum="-2.94651168648e-09" />
    <node avg_slowdown_ratio="0.0" id="node_07x04" junction="True" old_x="700.0" old_y="400.0" type="right_before_left" weight_num="4.0" weight_sum="0.0" x="699.999988963" x_displacement_sum="-1.10370362867e-05" y="399.999977926" y_displacement_sum="-2.20740725716e-05" />
    <node avg_slowdown_ratio="0.0" id="node_07x05" junction="True" old_x="700.0" old_y="500.0" type="right_before_left" weight_num="4.0" weight_sum="0.0" x="699.928779247" x_displacement_sum="-0.0712207532652" y="499.881298745" y_displacement_sum="-0.118701255442" />
    <node avg_slowdown_ratio="0.0" id="node_07x06" junction="True" old_x="700.0" old_y="600.0" type="right_before_left" weight_num="4.0" weight_sum="0.0" x="552.699492515" x_displacement_sum="-147.300507485" y="403.599323354" y_displacement_sum="-196.400676646" />
    <node avg_slowdown_ratio="0.0" id="node_07x07" junction="True" old_x="700.0" old_y="700.0" type="right_before_left" weight_num="4.0" weight_sum="0.0" x="400.159717912" x_displacement_sum="-299.840282088" y="400.159717912" y_displacement_sum="-299.840282088" />
    <node avg_slowdown_ratio="0.0" id="node_07x08" junction="True" old_x="700.0" old_y="800.0" type="right_before_left" weight_num="4.0" weight_sum="0.0" x="400.000273363" x_displacement_sum="-299.999726637" y="600.000182242" y_displacement_sum="-199.999817758" />
    <node avg_slowdown_ratio="0.0" id="node_07x09" junction="True" old_x="700.0" old_y="900.0" type="right_before_left" weight_num="4.0" weight_sum="0.0" x="400.000003248" x_displacement_sum="-299.999996752" y="800.000001083" y_displacement_sum="-99.9999989173" />
    <node avg_slowdown_ratio="0.0" id="node_07x10" junction="True" old_x="700.0" old_y="1000.0" type="right_before_left" weight_num="4.0" weight_sum="0.0" x="400.000000641" x_displacement_sum="-299.999999359" y="1000.0" y_displacement_sum="-1.68647834281e-15" />
    <node avg_slowdown_ratio="0.0" id="node_07x11" junction="True" old_x="700.0" old_y="1100.0" type="right_before_left" weight_num="4.0" weight_sum="0.0" x="400.000003248" x_displacement_sum="-299.999996752" y="1199.99999892" y_displacement_sum="99.9999989177" />
    <node avg_slowdown_ratio="0.0" id="node_07x12" junction="True" old_x="700.0" old_y="1200.0" type="right_before_left" weight_num="4.0" weight_sum="0.0" x="400.000273363" x_displacement_sum="-299.999726637" y="1399.99981776" y_displacement_sum="199.999817758" />
    <node avg_slowdown_ratio="0.0" id="node_07x13" junction="True" old_x="700.0" old_y="1300.0" type="right_before_left" weight_num="4.0" weight_sum="0.0" x="400.159717912" x_displacement_sum="-299.840282088" y="1599.84028209" y_displacement_sum="299.840282088" />
    <node avg_slowdown_ratio="0.0" id="node_07x14" junction="True" old_x="700.0" old_y="1400.0" type="right_before_left" weight_num="4.0" weight_sum="0.0" x="552.699492515" x_displacement_sum="-147.300507485" y="1596.40067665" y_displacement_sum="196.400676646" />
    <node avg_slowdown_ratio="0.0" id="node_07x15" junction="True" old_x="700.0" old_y="1500.0" type="right_before_left" weight_num="4.0" weight_sum="0.0" x="699.928779247" x_displacement_sum="-0.0712207532652" y="1500.11870126" y_displacement_sum="0.118701255442" />
    <node avg_slowdown_ratio="0.0" id="node_07x16" junction="True" old_x="700.0" old_y="1600.0" type="right_before_left" weight_num="4.0" weight_sum="0.0" x="699.999988963" x_displacement_sum="-1.10370362867e-05" y="1600.00002207" y_displacement_sum="2.20740725684e-05" />
    <node avg_slowdown_ratio="0.0" id="node_07x17" junction="True" old_x="700.0" old_y="1700.0" type="right_before_left" weight_num="4.0" weight_sum="0.0" x="699.999999999" x_displacement_sum="-1.26278693103e-09" y="1700.0" y_displacement_sum="2.94650831352e-09" />
    <node avg_slowdown_ratio="0.0" id="node_07x18" junction="True" old_x="700.0" old_y="1800.0" type="right_before_left" weight_num="4.0" weight_sum="0.0" x="700.0" x_displacement_sum="-1.29552116141e-13" y="1800.0" y_displacement_sum="3.95880376031e-11" />
    <node avg_slowdown_ratio="0.0" id="node_07x19" junction="True" old_x="700.0" old_y="1900.0" type="right_before_left" weight_num="4.0" weight_sum="0.0" x="700.0" x_displacement_sum="1.01791328367e-14" y="1900.00000049" y_displacement_sum="4.9027113698e-07" />
    <node avg_slowdown_ratio="0.0" id="node_07x20" junction="True" old_x="700.0" old_y="2000.0" type="right_before_left" weight_num="3.0" weight_sum="0.0" x="700.0" x_displacement_sum="2.22780386855e-15" y="2000.00468459" y_displacement_sum="0.004684586768" />
    <node avg_slowdown_ratio="0.0" id="node_08x00" junction="True" old_x="800.0" old_y="0.0" type="right_before_left" weight_num="3.0" weight_sum="0.0" x="800.0" x_displacement_sum="-8.63993040809e-16" y="-0.004684586768" y_displacement_sum="-0.004684586768" />
    <node avg_slowdown_ratio="0.0" id="node_08x01" junction="True" old_x="800.0" old_y="100.0" type="right_before_left" weight_num="4.0" weight_sum="0.0" x="800.0" x_displacement_sum="-5.80665564081e-15" y="99.9999995097" y_displacement_sum="-4.90271137811e-07" />
    <node avg_slowdown_ratio="0.0" id="node_08x02" junction="True" old_x="800.0" old_y="200.0" type="right_before_left" weight_num="4.0" weight_sum="0.0" x="800.0" x_displacement_sum="-1.55252203714e-12" y="200.0" y_displacement_sum="-4.54571998786e-11" />
    <node avg_slowdown_ratio="0.0" id="node_08x03" junction="True" old_x="800.0" old_y="300.0" type="right_before_left" weight_num="4.0" weight_sum="0.0" x="799.999999976" x_displacement_sum="-2.41548969312e-08" y="299.999999915" y_displacement_sum="-8.45421516866e-08" />
    <node avg_slowdown_ratio="0.0" id="node_08x04" junction="True" old_x="800.0" old_y="400.0" type="right_before_left" weight_num="4.0" weight_sum="0.0" x="799.999658866" x_displacement_sum="-0.000341134181946" y="399.998976597" y_displacement_sum="-0.00102340254584" />
    <node avg_slowdown_ratio="0.0" id="node_08x05" junction="True" old_x="800.0" old_y="500.0" type="right_before_left" weight_num="4.0" weight_sum="0.0" x="795.983600741" x_displacement_sum="-4.01639925926" y="489.959001852" y_displacement_sum="-10.0409981482" />
    <node avg_slowdown_ratio="0.0" id="node_08x06" junction="True" old_x="800.0" old_y="600.0" type="right_before_left" weight_num="4.0" weight_sum="0.0" x="601.051693471" x_displacement_sum="-198.948306529" y="202.103386943" y_displacement_sum="-397.896613057" />
    <node avg_slowdown_ratio="0.0" id="node_08x07" junction="True" old_x="800.0" old_y="700.0" type="right_before_left" weight_num="4.0" weight_sum="0.0" x="600.000182242" x_displacement_sum="-199.999817758" y="400.000273363" y_displacement_sum="-299.999726637" />
    <node avg_slowdown_ratio="0.0" id="node_08x08" junction="True" old_x="800.0" old_y="800.0" type="right_before_left" weight_num="4.0" weight_sum="0.0" x="600.000000077" x_displacement_sum="-199.999999923" y="600.000000077" y_displacement_sum="-199.999999923" />
    <node avg_slowdown_ratio="0.0" id="node_08x09" junction="True" old_x="800.0" old_y="900.0" type="right_before_left" weight_num="4.0" weight_sum="0.0" x="600.000000039" x_displacement_sum="-199.999999961" y="800.00000002" y_displacement_sum="-99.9999999805" />
    <node avg_slowdown_ratio="0.0" id="node_08x10" junction="True" old_x="800.0" old_y="1000.0" type="right_before_left" weight_num="4.0" weight_sum="0.0" x="600.000000412" x_displacement_sum="-199.999999588" y="1000.0" y_displacement_sum="-1.68647834281e-15" />
    <node avg_slowdown_ratio="0.0" id="node_08x11" junction="True" old_x="800.0" old_y="1100.0" type="right_before_left" weight_num="4.0" weight_sum="0.0" x="600.000000039" x_displacement_sum="-199.999999961" y="1199.99999998" y_displacement_sum="99.9999999797" />
    <node avg_slowdown_ratio="0.0" id="node_08x12" junction="True" old_x="800.0" old_y="1200.0" type="right_before_left" weight_num="4.0" weight_sum="0.0" x="600.000000077" x_displacement_sum="-199.999999923" y="1399.99999992" y_displacement_sum="199.999999923" />
    <node avg_slowdown_ratio="0.0" id="node_08x13" junction="True" old_x="800.0" old_y="1300.0" type="right_before_left" weight_num="4.0" weight_sum="0.0" x="600.000182242" x_displacement_sum="-199.999817758" y="1599.99972664" y_displacement_sum="299.999726637" />
    <node avg_slowdown_ratio="0.0" id="node_08x14" junction="True" old_x="800.0" old_y="1400.0" type="right_before_left" weight_num="4.0" weight_sum="0.0" x="601.051693471" x_displacement_sum="-198.948306529" y="1797.89661306" y_displacement_sum="397.896613057" />
    <node avg_slowdown_ratio="0.0" id="node_08x15" junction="True" old_x="800.0" old_y="1500.0" type="right_before_left" weight_num="4.0" weight_sum="0.0" x="795.983600741" x_displacement_sum="-4.01639925926" y="1510.04099815" y_displacement_sum="10.0409981482" />
    <node avg_slowdown_ratio="0.0" id="node_08x16" junction="True" old_x="800.0" old_y="1600.0" type="right_before_left" weight_num="4.0" weight_sum="0.0" x="799.999658866" x_displacement_sum="-0.000341134181946" y="1600.0010234" y_displacement_sum="0.00102340254584" />
    <node avg_slowdown_ratio="0.0" id="node_08x17" junction="True" old_x="800.0" old_y="1700.0" type="right_before_left" weight_num="4.0" weight_sum="0.0" x="799.999999976" x_displacement_sum="-2.41548969312e-08" y="1700.00000008" y_displacement_sum="8.45421483137e-08" />
    <node avg_slowdown_ratio="0.0" id="node_08x18" junction="True" old_x="800.0" old_y="1800.0" type="right_before_left" weight_num="4.0" weight_sum="0.0" x="800.0" x_displacement_sum="-1.54955211614e-12" y="1800.0" y_displacement_sum="4.54480375031e-11" />
    <node avg_slowdown_ratio="0.0" id="node_08x19" junction="True" old_x="800.0" old_y="1900.0" type="right_before_left" weight_num="4.0" weight_sum="0.0" x="800.0" x_displacement_sum="1.01791328367e-14" y="1900.00000049" y_displacement_sum="4.9027113698e-07" />
    <node avg_slowdown_ratio="0.0" id="node_08x20" junction="True" old_x="800.0" old_y="2000.0" type="right_before_left" weight_num="3.0" weight_sum="0.0" x="800.0" x_displacement_sum="2.22780386855e-15" y="2000.00468459" y_displacement_sum="0.004684586768" />
    <node avg_slowdown_ratio="0.0" id="node_09x00" junction="True" old_x="900.0" old_y="0.0" type="right_before_left" weight_num="3.0" weight_sum="0.0" x="900.0" x_displacement_sum="-8.63993040809e-16" y="-0.004684586768" y_displacement_sum="-0.004684586768" />
    <node avg_slowdown_ratio="0.0" id="node_09x01" junction="True" old_x="900.0" old_y="100.0" type="right_before_left" weight_num="4.0" weight_sum="0.0" x="900.0" x_displacement_sum="-5.80665564081e-15" y="99.9999995097" y_displacement_sum="-4.90271137811e-07" />
    <node avg_slowdown_ratio="0.0" id="node_09x02" junction="True" old_x="900.0" old_y="200.0" type="right_before_left" weight_num="4.0" weight_sum="0.0" x="900.0" x_displacement_sum="-4.84252203714e-12" y="200.0" y_displacement_sum="-7.79571998786e-11" />
    <node avg_slowdown_ratio="0.0" id="node_09x03" junction="True" old_x="900.0" old_y="300.0" type="right_before_left" weight_num="4.0" weight_sum="0.0" x="899.999999902" x_displacement_sum="-9.76862369312e-08" y="299.999999316" y_displacement_sum="-6.83803661687e-07" />
    <node avg_slowdown_ratio="0.0" id="node_09x04" junction="True" old_x="900.0" old_y="400.0" type="right_before_left" weight_num="4.0" weight_sum="0.0" x="899.99808583" x_displacement_sum="-0.00191416960127" y="399.988514982" y_displacement_sum="-0.0114850176076" />
    <node avg_slowdown_ratio="0.0" id="node_09x05" junction="True" old_x="900.0" old_y="500.0" type="right_before_left" weight_num="4.0" weight_sum="0.0" x="873.617701958" x_displacement_sum="-26.3822980417" y="368.088509791" y_displacement_sum="-131.911490209" />
    <node avg_slowdown_ratio="0.0" id="node_09x06" junction="True" old_x="900.0" old_y="600.0" type="right_before_left" weight_num="4.0" weight_sum="0.0" x="800.016116082" x_displacement_sum="-99.9838839178" y="200.064464329" y_displacement_sum="-399.935535671" />
    <node avg_slowdown_ratio="0.0" id="node_09x07" junction="True" old_x="900.0" old_y="700.0" type="right_before_left" weight_num="4.0" weight_sum="0.0" x="800.000001083" x_displacement_sum="-99.9999989173" y="400.000003248" y_displacement_sum="-299.999996752" />
    <node avg_slowdown_ratio="0.0" id="node_09x08" junction="True" old_x="900.0" old_y="800.0" type="right_before_left" weight_num="4.0" weight_sum="0.0" x="800.00000002" x_displacement_sum="-99.9999999805" y="600.000000039" y_displacement_sum="-199.999999961" />
    <node avg_slowdown_ratio="0.0" id="node_09x09" junction="True" old_x="900.0" old_y="900.0" type="right_before_left" weight_num="4.0" weight_sum="0.0" x="800.000072135" x_displacement_sum="-99.9999278646" y="800.000072135" y_displacement_sum="-99.9999278646" />
    <node avg_slowdown_ratio="0.0" id="node_09x10" junction="True" old_x="900.0" old_y="1000.0" type="right_before_left" weight_num="4.0" weight_sum="0.0" x="800.004539787" x_displacement_sum="-99.9954602131" y="1000.0" y_displacement_sum="-1.68647834281e-15" />
    <node avg_slowdown_ratio="0.0" id="node_09x11" junction="True" old_x="900.0" old_y="1100.0" type="right_before_left" weight_num="4.0" weight_sum="0.0" x="800.000072135" x_displacement_sum="-99.9999278646" y="1199.99992786" y_displacement_sum="99.9999278637" />
    <node avg_slowdown_ratio="0.0" id="node_09x12" junction="True" old_x="900.0" old_y="1200.0" type="right_before_left" weight_num="4.0" weight_sum="0.0" x="800.00000002" x_displacement_sum="-99.9999999805" y="1399.99999996" y_displacement_sum="199.999999961" />
    <node avg_slowdown_ratio="0.0" id="node_09x13" junction="True" old_x="900.0" old_y="1300.0" type="right_before_left" weight_num="4.0" weight_sum="0.0" x="800.000001083" x_displacement_sum="-99.9999989173" y="1599.99999675" y_displacement_sum="299.999996752" />
    <node avg_slowdown_ratio="0.0" id="node_09x14" junction="True" old_x="900.0" old_y="1400.0" type="right_before_left" weight_num="4.0" weight_sum="0.0" x="800.016116082" x_displacement_sum="-99.9838839178" y="1799.93553567" y_displacement_sum="399.935535671" />
    <node avg_slowdown_ratio="0.0" id="node_09x15" junction="True" old_x="900.0" old_y="1500.0" type="right_before_left" weight_num="4.0" weight_sum="0.0" x="873.617701958" x_displacement_sum="-26.3822980417" y="1631.91149021" y_displacement_sum="131.911490209" />
    <node avg_slowdown_ratio="0.0" id="node_09x16" junction="True" old_x="900.0" old_y="1600.0" type="right_before_left" weight_num="4.0" weight_sum="0.0" x="899.99808583" x_displacement_sum="-0.00191416960127" y="1600.01148502" y_displacement_sum="0.0114850176076" />
    <node avg_slowdown_ratio="0.0" id="node_09x17" junction="True" old_x="900.0" old_y="1700.0" type="right_before_left" weight_num="4.0" weight_sum="0.0" x="899.999999902" x_displacement_sum="-9.76862369312e-08" y="1700.00000068" y_displacement_sum="6.83803658313e-07" />
    <node avg_slowdown_ratio="0.0" id="node_09x18" junction="True" old_x="900.0" old_y="1800.0" type="right_before_left" weight_num="4.0" weight_sum="0.0" x="900.0" x_displacement_sum="-4.83955211614e-12" y="1800.0" y_displacement_sum="7.79580375031e-11" />
    <node avg_slowdown_ratio="0.0" id="node_09x19" junction="True" old_x="900.0" old_y="1900.0" type="right_before_left" weight_num="4.0" weight_sum="0.0" x="900.0" x_displacement_sum="1.01791328367e-14" y="1900.00000049" y_displacement_sum="4.9027113698e-07" />
    <node avg_slowdown_ratio="0.0" id="node_09x20" junction="True" old_x="900.0" old_y="2000.0" type="right_before_left" weight_num="3.0" weight_sum="0.0" x="900.0" x_displacement_sum="2.22780386855e-15" y="2000.00468459" y_displacement_sum="0.004684586768" />
    <node avg_slowdown_ratio="0.0" id="node_10x00" junction="True" old_x="1000.0" old_y="0.0" type="right_before_left" weight_num="3.0" weight_sum="0.0" x="1000.0" x_displacement_sum="-8.63993040809e-16" y="-0.004684586768" y_displacement_sum="-0.004684586768" />
    <node avg_slowdown_ratio="0.0" id="node_10x01" junction="True" old_x="1000.0" old_y="100.0" type="right_before_left" weight_num="4.0" weight_sum="0.0" x="1000.0" x_displacement_sum="-5.80665564081e-15" y="99.9999995097" y_displacement_sum="-4.90271137811e-07" />
    <node avg_slowdown_ratio="0.0" id="node_10x02" junction="True" old_x="1000.0" old_y="200.0" type="right_before_left" weight_num="4.0" weight_sum="0.0" x="1000.0" x_displacement_sum="-2.52203714081e-15" y="200.0" y_displacement_sum="-1.11537199878e-10" />
    <node avg_slowdown_ratio="0.0" id="node_10x03" junction="True" old_x="1000.0" old_y="300.0" type="right_before_left" weight_num="4.0" weight_sum="0.0" x="1000.0" x_displacement_sum="3.06896285919e-15" y="299.999998608" y_displacement_sum="-1.39179428168e-06" />
    <node avg_slowdown_ratio="0.0" id="node_10x04" junction="True" old_x="1000.0" old_y="400.0" type="right_before_left" weight_num="4.0" weight_sum="0.0" x="1000.0" x_displacement_sum="3.06896285919e-15" y="399.973724314" y_displacement_sum="-0.0262756858802" />
    <node avg_slowdown_ratio="0.0" id="node_10x05" junction="True" old_x="1000.0" old_y="500.0" type="right_before_left" weight_num="4.0" weight_sum="0.0" x="1000.0" x_displacement_sum="3.06896285919e-15" y="254.499154192" y_displacement_sum="-245.500845808" />
    <node avg_slowdown_ratio="0.0" id="node_10x06" junction="True" old_x="1000.0" old_y="600.0" type="right_before_left" weight_num="4.0" weight_sum="0.0" x="1000.0" x_displacement_sum="3.06896285919e-15" y="200.018824701" y_displacement_sum="-399.981175299" />
    <node avg_slowdown_ratio="0.0" id="node_10x07" junction="True" old_x="1000.0" old_y="700.0" type="right_before_left" weight_num="4.0" weight_sum="0.0" x="1000.0" x_displacement_sum="3.06896285919e-15" y="400.000000641" y_displacement_sum="-299.999999359" />
    <node avg_slowdown_ratio="0.0" id="node_10x08" junction="True" old_x="1000.0" old_y="800.0" type="right_before_left" weight_num="4.0" weight_sum="0.0" x="1000.0" x_displacement_sum="3.06896285919e-15" y="600.000000412" y_displacement_sum="-199.999999588" />
    <node avg_slowdown_ratio="0.0" id="node_10x09" junction="True" old_x="1000.0" old_y="900.0" type="right_before_left" weight_num="4.0" weight_sum="0.0" x="1000.0" x_displacement_sum="3.06896285919e-15" y="800.004539787" y_displacement_sum="-99.9954602131" />
    <node avg_slowdown_ratio="0.0" id="node_10x11" junction="True" old_x="1000.0" old_y="1100.0" type="right_before_left" weight_num="4.0" weight_sum="0.0" x="1000.0" x_displacement_sum="3.06896285919e-15" y="1199.99546021" y_displacement_sum="99.9954602119" />
    <node avg_slowdown_ratio="0.0" id="node_10x12" junction="True" old_x="1000.0" old_y="1200.0" type="right_before_left" weight_num="4.0" weight_sum="0.0" x="1000.0" x_displacement_sum="3.06896285919e-15" y="1399.99999959" y_displacement_sum="199.999999588" />
    <node avg_slowdown_ratio="0.0" id="node_10x13" junction="True" old_x="1000.0" old_y="1300.0" type="right_before_left" weight_num="4.0" weight_sum="0.0" x="1000.0" x_displacement_sum="3.06896285919e-15" y="1599.99999936" y_displacement_sum="299.999999359" />
    <node avg_slowdown_ratio="0.0" id="node_10x14" junction="True" old_x="1000.0" old_y="1400.0" type="right_before_left" weight_num="4.0" weight_sum="0.0" x="1000.0" x_displacement_sum="3.06896285919e-15" y="1799.9811753" y_displacement_sum="399.981175299" />
    <node avg_slowdown_ratio="0.0" id="node_10x15" junction="True" old_x="1000.0" old_y="1500.0" type="right_before_left" weight_num="4.0" weight_sum="0.0" x="1000.0" x_displacement_sum="3.06896285919e-15" y="1745.50084581" y_displacement_sum="245.500845808" />
    <node avg_slowdown_ratio="0.0" id="node_10x16" junction="True" old_x="1000.0" old_y="1600.0" type="right_before_left" weight_num="4.0" weight_sum="0.0" x="1000.0" x_displacement_sum="3.06896285919e-15" y="1600.02627569" y_displacement_sum="0.0262756858802" />
    <node avg_slowdown_ratio="0.0" id="node_10x17" junction="True" old_x="1000.0" old_y="1700.0" type="right_before_left" weight_num="4.0" weight_sum="0.0" x="1000.0" x_displacement_sum="3.06896285919e-15" y="1700.00000139" y_displacement_sum="1.39179427832e-06" />
    <node avg_slowdown_ratio="0.0" id="node_10x18" junction="True" old_x="1000.0" old_y="1800.0" type="right_before_left" weight_num="4.0" weight_sum="0.0" x="1000.0" x_displacement_sum="4.47883859191e-16" y="1800.0" y_displacement_sum="1.11528037503e-10" />
    <node avg_slowdown_ratio="0.0" id="node_10x19" junction="True" old_x="1000.0" old_y="1900.0" type="right_before_left" weight_num="4.0" weight_sum="0.0" x="1000.0" x_displacement_sum="1.01791328367e-14" y="1900.00000049" y_displacement_sum="4.9027113698e-07" />
    <node avg_slowdown_ratio="0.0" id="node_10x20" junction="True" old_x="1000.0" old_y="2000.0" type="right_before_left" weight_num="3.0" weight_sum="0.0" x="1000.0" x_displacement_sum="2.22780386855e-15" y="2000.00468459" y_displacement_sum="0.004684586768" />
    <node avg_slowdown_ratio="0.0" id="node_11x00" junction="True" old_x="1100.0" old_y="0.0" type="right_before_left" weight_num="3.0" weight_sum="0.0" x="1100.0" x_displacement_sum="-8.63993040809e-16" y="-0.004684586768" y_displacement_sum="-0.004684586768" />
    <node avg_slowdown_ratio="0.0" id="node_11x01" junction="True" old_x="1100.0" old_y="100.0" type="right_before_left" weight_num="4.0" weight_sum="0.0" x="1100.0" x_displacement_sum="-5.80665564081e-15" y="99.9999995097" y_displacement_sum="-4.90271137811e-07" />
    <node avg_slowdown_ratio="0.0" id="node_11x02" junction="True" old_x="1100.0" old_y="200.0" type="right_before_left" weight_num="4.0" weight_sum="0.0" x="1100.0" x_displacement_sum="4.83747796289e-12" y="200.0" y_displacement_sum="-7.79571998786e-11" />
    <node avg_slowdown_ratio="0.0" id="node_11x03" junction="True" old_x="1100.0" old_y="300.0" type="right_before_left" weight_num="4.0" weight_sum="0.0" x="1100.0000001" x_displacement_sum="9.76862330683e-08" y="299.999999316" y_displacement_sum="-6.83803661687e-07" />
    <node avg_slowdown_ratio="0.0" id="node_11x04" junction="True" old_x="1100.0" old_y="400.0" type="right_before_left" weight_num="4.0" weight_sum="0.0" x="1100.00191417" x_displacement_sum="0.00191416960127" y="399.988514982" y_displacement_sum="-0.0114850176076" />
    <node avg_slowdown_ratio="0.0" id="node_11x05" junction="True" old_x="1100.0" old_y="500.0" type="right_before_left" weight_num="4.0" weight_sum="0.0" x="1126.38229804" x_displacement_sum="26.3822980417" y="368.088509791" y_displacement_sum="-131.911490209" />
    <node avg_slowdown_ratio="0.0" id="node_11x06" junction="True" old_x="1100.0" old_y="600.0" type="right_before_left" weight_num="4.0" weight_sum="0.0" x="1199.98388392" x_displacement_sum="99.9838839178" y="200.064464329" y_displacement_sum="-399.935535671" />
    <node avg_slowdown_ratio="0.0" id="node_11x07" junction="True" old_x="1100.0" old_y="700.0" type="right_before_left" weight_num="4.0" weight_sum="0.0" x="1199.99999892" x_displacement_sum="99.999998917" y="400.000003248" y_displacement_sum="-299.999996752" />
    <node avg_slowdown_ratio="0.0" id="node_11x08" junction="True" old_x="1100.0" old_y="800.0" type="right_before_left" weight_num="4.0" weight_sum="0.0" x="1199.99999998" x_displacement_sum="99.999999981" y="600.000000039" y_displacement_sum="-199.999999961" />
    <node avg_slowdown_ratio="0.0" id="node_11x09" junction="True" old_x="1100.0" old_y="900.0" type="right_before_left" weight_num="4.0" weight_sum="0.0" x="1199.99992786" x_displacement_sum="99.999927864" y="800.000072135" y_displacement_sum="-99.9999278646" />
    <node avg_slowdown_ratio="0.0" id="node_11x10" junction="True" old_x="1100.0" old_y="1000.0" type="right_before_left" weight_num="4.0" weight_sum="0.0" x="1199.99546021" x_displacement_sum="99.9954602121" y="1000.0" y_displacement_sum="-1.68647834281e-15" />
    <node avg_slowdown_ratio="0.0" id="node_11x11" junction="True" old_x="1100.0" old_y="1100.0" type="right_before_left" weight_num="4.0" weight_sum="0.0" x="1199.99992786" x_displacement_sum="99.999927864" y="1199.99992786" y_displacement_sum="99.9999278637" />
    <node avg_slowdown_ratio="0.0" id="node_11x12" junction="True" old_x="1100.0" old_y="1200.0" type="right_before_left" weight_num="4.0" weight_sum="0.0" x="1199.99999998" x_displacement_sum="99.999999981" y="1399.99999996" y_displacement_sum="199.999999961" />
    <node avg_slowdown_ratio="0.0" id="node_11x13" junction="True" old_x="1100.0" old_y="1300.0" type="right_before_left" weight_num="4.0" weight_sum="0.0" x="1199.99999892" x_displacement_sum="99.999998917" y="1599.99999675" y_displacement_sum="299.999996752" />
    <node avg_slowdown_ratio="0.0" id="node_11x14" junction="True" old_x="1100.0" old_y="1400.0" type="right_before_left" weight_num="4.0" weight_sum="0.0" x="1199.98388392" x_displacement_sum="99.9838839178" y="1799.93553567" y_displacement_sum="399.935535671" />
    <node avg_slowdown_ratio="0.0" id="node_11x15" junction="True" old_x="1100.0" old_y="1500.0" type="right_before_left" weight_num="4.0" weight_sum="0.0" x="1126.38229804" x_displacement_sum="26.3822980417" y="1631.91149021" y_displacement_sum="131.911490209" />
    <node avg_slowdown_ratio="0.0" id="node_11x16" junction="True" old_x="1100.0" old_y="1600.0" type="right_before_left" weight_num="4.0" weight_sum="0.0" x="1100.00191417" x_displacement_sum="0.00191416960127" y="1600.01148502" y_displacement_sum="0.0114850176076" />
    <node avg_slowdown_ratio="0.0" id="node_11x17" junction="True" old_x="1100.0" old_y="1700.0" type="right_before_left" weight_num="4.0" weight_sum="0.0" x="1100.0000001" x_displacement_sum="9.76862330683e-08" y="1700.00000068" y_displacement_sum="6.83803658313e-07" />
    <node avg_slowdown_ratio="0.0" id="node_11x18" junction="True" old_x="1100.0" old_y="1800.0" type="right_before_left" weight_num="4.0" weight_sum="0.0" x="1100.0" x_displacement_sum="4.84044788389e-12" y="1800.0" y_displacement_sum="7.79580375031e-11" />
    <node avg_slowdown_ratio="0.0" id="node_11x19" junction="True" old_x="1100.0" old_y="1900.0" type="right_before_left" weight_num="4.0" weight_sum="0.0" x="1100.0" x_displacement_sum="1.01791328367e-14" y="1900.00000049" y_displacement_sum="4.9027113698e-07" />
    <node avg_slowdown_ratio="0.0" id="node_11x20" junction="True" old_x="1100.0" old_y="2000.0" type="right_before_left" weight_num="3.0" weight_sum="0.0" x="1100.0" x_displacement_sum="2.22780386855e-15" y="2000.00468459" y_displacement_sum="0.004684586768" />
    <node avg_slowdown_ratio="0.0" id="node_12x00" junction="True" old_x="1200.0" old_y="0.0" type="right_before_left" weight_num="3.0" weight_sum="0.0" x="1200.0" x_displacement_sum="-8.63993040809e-16" y="-0.004684586768" y_displacement_sum="-0.004684586768" />
    <node avg_slowdown_ratio="0.0" id="node_12x01" junction="True" old_x="1200.0" old_y="100.0" type="right_before_left" weight_num="4.0" weight_sum="0.0" x="1200.0" x_displacement_sum="-5.80665564081e-15" y="99.9999995097" y_displacement_sum="-4.90271137811e-07" />
    <node avg_slowdown_ratio="0.0" id="node_12x02" junction="True" old_x="1200.0" old_y="200.0" type="right_before_left" weight_num="4.0" weight_sum="0.0" x="1200.0" x_displacement_sum="1.54747796286e-12" y="200.0" y_displacement_sum="-4.54571998786e-11" />
    <node avg_slowdown_ratio="0.0" id="node_12x03" junction="True" old_x="1200.0" old_y="300.0" type="right_before_left" weight_num="4.0" weight_sum="0.0" x="1200.00000002" x_displacement_sum="2.41549030688e-08" y="299.999999915" y_displacement_sum="-8.45421516866e-08" />
    <node avg_slowdown_ratio="0.0" id="node_12x04" junction="True" old_x="1200.0" old_y="400.0" type="right_before_left" weight_num="4.0" weight_sum="0.0" x="1200.00034113" x_displacement_sum="0.000341134181944" y="399.998976597" y_displacement_sum="-0.00102340254584" />
    <node avg_slowdown_ratio="0.0" id="node_12x05" junction="True" old_x="1200.0" old_y="500.0" type="right_before_left" weight_num="4.0" weight_sum="0.0" x="1204.01639926" x_displacement_sum="4.01639925926" y="489.959001852" y_displacement_sum="-10.0409981482" />
    <node avg_slowdown_ratio="0.0" id="node_12x06" junction="True" old_x="1200.0" old_y="600.0" type="right_before_left" weight_num="4.0" weight_sum="0.0" x="1398.94830653" x_displacement_sum="198.948306529" y="202.103386943" y_displacement_sum="-397.896613057" />
    <node avg_slowdown_ratio="0.0" id="node_12x07" junction="True" old_x="1200.0" old_y="700.0" type="right_before_left" weight_num="4.0" weight_sum="0.0" x="1399.99981776" x_displacement_sum="199.999817758" y="400.000273363" y_displacement_sum="-299.999726637" />
    <node avg_slowdown_ratio="0.0" id="node_12x08" junction="True" old_x="1200.0" old_y="800.0" type="right_before_left" weight_num="4.0" weight_sum="0.0" x="1399.99999992" x_displacement_sum="199.999999923" y="600.000000077" y_displacement_sum="-199.999999923" />
    <node avg_slowdown_ratio="0.0" id="node_12x09" junction="True" old_x="1200.0" old_y="900.0" type="right_before_left" weight_num="4.0" weight_sum="0.0" x="1399.99999996" x_displacement_sum="199.999999961" y="800.00000002" y_displacement_sum="-99.9999999805" />
    <node avg_slowdown_ratio="0.0" id="node_12x10" junction="True" old_x="1200.0" old_y="1000.0" type="right_before_left" weight_num="4.0" weight_sum="0.0" x="1399.99999959" x_displacement_sum="199.999999588" y="1000.0" y_displacement_sum="-1.68647834281e-15" />
    <node avg_slowdown_ratio="0.0" id="node_12x11" junction="True" old_x="1200.0" old_y="1100.0" type="right_before_left" weight_num="4.0" weight_sum="0.0" x="1399.99999996" x_displacement_sum="199.999999961" y="1199.99999998" y_displacement_sum="99.9999999801" />
    <node avg_slowdown_ratio="0.0" id="node_12x12" junction="True" old_x="1200.0" old_y="1200.0" type="right_before_left" weight_num="4.0" weight_sum="0.0" x="1399.99999992" x_displacement_sum="199.999999923" y="1399.99999992" y_displacement_sum="199.999999923" />
    <node avg_slowdown_ratio="0.0" id="node_12x13" junction="True" old_x="1200.0" old_y="1300.0" type="right_before_left" weight_num="4.0" weight_sum="0.0" x="1399.99981776" x_displacement_sum="199.999817758" y="1599.99972664" y_displacement_sum="299.999726637" />
    <node avg_slowdown_ratio="0.0" id="node_12x14" junction="True" old_x="1200.0" old_y="1400.0" type="right_before_left" weight_num="4.0" weight_sum="0.0" x="1398.94830653" x_displacement_sum="198.948306529" y="1797.89661306" y_displacement_sum="397.896613057" />
    <node avg_slowdown_ratio="0.0" id="node_12x15" junction="True" old_x="1200.0" old_y="1500.0" type="right_before_left" weight_num="4.0" weight_sum="0.0" x="1204.01639926" x_displacement_sum="4.01639925926" y="1510.04099815" y_displacement_sum="10.0409981482" />
    <node avg_slowdown_ratio="0.0" id="node_12x16" junction="True" old_x="1200.0" old_y="1600.0" type="right_before_left" weight_num="4.0" weight_sum="0.0" x="1200.00034113" x_displacement_sum="0.000341134181944" y="1600.0010234" y_displacement_sum="0.00102340254584" />
    <node avg_slowdown_ratio="0.0" id="node_12x17" junction="True" old_x="1200.0" old_y="1700.0" type="right_before_left" weight_num="4.0" weight_sum="0.0" x="1200.00000002" x_displacement_sum="2.41549030688e-08" y="1700.00000008" y_displacement_sum="8.45421483137e-08" />
    <node avg_slowdown_ratio="0.0" id="node_12x18" junction="True" old_x="1200.0" old_y="1800.0" type="right_before_left" weight_num="4.0" weight_sum="0.0" x="1200.0" x_displacement_sum="1.56044788386e-12" y="1800.0" y_displacement_sum="4.54480375031e-11" />
    <node avg_slowdown_ratio="0.0" id="node_12x19" junction="True" old_x="1200.0" old_y="1900.0" type="right_before_left" weight_num="4.0" weight_sum="0.0" x="1200.0" x_displacement_sum="1.01791328367e-14" y="1900.00000049" y_displacement_sum="4.9027113698e-07" />
    <node avg_slowdown_ratio="0.0" id="node_12x20" junction="True" old_x="1200.0" old_y="2000.0" type="right_before_left" weight_num="3.0" weight_sum="0.0" x="1200.0" x_displacement_sum="2.22780386855e-15" y="2000.00468459" y_displacement_sum="0.004684586768" />
    <node avg_slowdown_ratio="0.0" id="node_13x00" junction="True" old_x="1300.0" old_y="0.0" type="right_before_left" weight_num="3.0" weight_sum="0.0" x="1300.0" x_displacement_sum="-8.63993040809e-16" y="-0.004684586768" y_displacement_sum="-0.004684586768" />
    <node avg_slowdown_ratio="0.0" id="node_13x01" junction="True" old_x="1300.0" old_y="100.0" type="right_before_left" weight_num="4.0" weight_sum="0.0" x="1300.0" x_displacement_sum="-5.80665564081e-15" y="99.9999995097" y_displacement_sum="-4.90271137811e-07" />
    <node avg_slowdown_ratio="0.0" id="node_13x02" junction="True" old_x="1300.0" old_y="200.0" type="right_before_left" weight_num="4.0" weight_sum="0.0" x="1300.0" x_displacement_sum="1.27477962859e-13" y="200.0" y_displacement_sum="-3.95871998786e-11" />
    <node avg_slowdown_ratio="0.0" id="node_13x03" junction="True" old_x="1300.0" old_y="300.0" type="right_before_left" weight_num="4.0" weight_sum="0.0" x="1300.0" x_displacement_sum="1.26279306897e-09" y="299.999999997" y_displacement_sum="-2.94651168648e-09" />
    <node avg_slowdown_ratio="0.0" id="node_13x04" junction="True" old_x="1300.0" old_y="400.0" type="right_before_left" weight_num="4.0" weight_sum="0.0" x="1300.00001104" x_displacement_sum="1.10370362833e-05" y="399.999977926" y_displacement_sum="-2.20740725716e-05" />
    <node avg_slowdown_ratio="0.0" id="node_13x05" junction="True" old_x="1300.0" old_y="500.0" type="right_before_left" weight_num="4.0" weight_sum="0.0" x="1300.07122075" x_displacement_sum="0.0712207532652" y="499.881298745" y_displacement_sum="-0.118701255442" />
    <node avg_slowdown_ratio="0.0" id="node_13x06" junction="True" old_x="1300.0" old_y="600.0" type="right_before_left" weight_num="4.0" weight_sum="0.0" x="1447.30050749" x_displacement_sum="147.300507485" y="403.599323354" y_displacement_sum="-196.400676646" />
    <node avg_slowdown_ratio="0.0" id="node_13x07" junction="True" old_x="1300.0" old_y="700.0" type="right_before_left" weight_num="4.0" weight_sum="0.0" x="1599.84028209" x_displacement_sum="299.840282088" y="400.159717912" y_displacement_sum="-299.840282088" />
    <node avg_slowdown_ratio="0.0" id="node_13x08" junction="True" old_x="1300.0" old_y="800.0" type="right_before_left" weight_num="4.0" weight_sum="0.0" x="1599.99972664" x_displacement_sum="299.999726637" y="600.000182242" y_displacement_sum="-199.999817758" />
    <node avg_slowdown_ratio="0.0" id="node_13x09" junction="True" old_x="1300.0" old_y="900.0" type="right_before_left" weight_num="4.0" weight_sum="0.0" x="1599.99999675" x_displacement_sum="299.999996752" y="800.000001083" y_displacement_sum="-99.9999989173" />
    <node avg_slowdown_ratio="0.0" id="node_13x10" junction="True" old_x="1300.0" old_y="1000.0" type="right_before_left" weight_num="4.0" weight_sum="0.0" x="1599.99999936" x_displacement_sum="299.999999359" y="1000.0" y_displacement_sum="-1.68647834281e-15" />
    <node avg_slowdown_ratio="0.0" id="node_13x11" junction="True" old_x="1300.0" old_y="1100.0" type="right_before_left" weight_num="4.0" weight_sum="0.0" x="1599.99999675" x_displacement_sum="299.999996752" y="1199.99999892" y_displacement_sum="99.9999989177" />
    <node avg_slowdown_ratio="0.0" id="node_13x12" junction="True" old_x="1300.0" old_y="1200.0" type="right_before_left" weight_num="4.0" weight_sum="0.0" x="1599.99972664" x_displacement_sum="299.999726637" y="1399.99981776" y_displacement_sum="199.999817758" />
    <node avg_slowdown_ratio="0.0" id="node_13x13" junction="True" old_x="1300.0" old_y="1300.0" type="right_before_left" weight_num="4.0" weight_sum="0.0" x="1599.84028209" x_displacement_sum="299.840282088" y="1599.84028209" y_displacement_sum="299.840282088" />
    <node avg_slowdown_ratio="0.0" id="node_13x14" junction="True" old_x="1300.0" old_y="1400.0" type="right_before_left" weight_num="4.0" weight_sum="0.0" x="1447.30050749" x_displacement_sum="147.300507485" y="1596.40067665" y_displacement_sum="196.400676646" />
    <node avg_slowdown_ratio="0.0" id="node_13x15" junction="True" old_x="1300.0" old_y="1500.0" type="right_before_left" weight_num="4.0" weight_sum="0.0" x="1300.07122075" x_displacement_sum="0.0712207532652" y="1500.11870126" y_displacement_sum="0.118701255442" />
    <node avg_slowdown_ratio="0.0" id="node_13x16" junction="True" old_x="1300.0" old_y="1600.0" type="right_before_left" weight_num="4.0" weight_sum="0.0" x="1300.00001104" x_displacement_sum="1.10370362833e-05" y="1600.00002207" y_displacement_sum="2.20740725684e-05" />
    <node avg_slowdown_ratio="0.0" id="node_13x17" junction="True" old_x="1300.0" old_y="1700.0" type="right_before_left" weight_num="4.0" weight_sum="0.0" x="1300.0" x_displacement_sum="1.26279306897e-09" y="1700.0" y_displacement_sum="2.94650831352e-09" />
    <node avg_slowdown_ratio="0.0" id="node_13x18" junction="True" old_x="1300.0" old_y="1800.0" type="right_before_left" weight_num="4.0" weight_sum="0.0" x="1300.0" x_displacement_sum="1.40447883859e-13" y="1800.0" y_displacement_sum="3.95880376031e-11" />
    <node avg_slowdown_ratio="0.0" id="node_13x19" junction="True" old_x="1300.0" old_y="1900.0" type="right_before_left" weight_num="4.0" weight_sum="0.0" x="1300.0" x_displacement_sum="1.01791328367e-14" y="1900.00000049" y_displacement_sum="4.9027113698e-07" />
    <node avg_slowdown_ratio="0.0" id="node_13x20" junction="True" old_x="1300.0" old_y="2000.0" type="right_before_left" weight_num="3.0" weight_sum="0.0" x="1300.0" x_displacement_sum="2.22780386855e-15" y="2000.00468459" y_displacement_sum="0.004684586768" />
    <node avg_slowdown_ratio="0.0" id="node_14x00" junction="True" old_x="1400.0" old_y="0.0" type="right_before_left" weight_num="3.0" weight_sum="0.0" x="1400.0" x_displacement_sum="-8.63993040809e-16" y="-0.004684586768" y_displacement_sum="-0.004684586768" />
    <node avg_slowdown_ratio="0.0" id="node_14x01" junction="True" old_x="1400.0" old_y="100.0" type="right_before_left" weight_num="4.0" weight_sum="0.0" x="1400.0" x_displacement_sum="-5.80665564081e-15" y="99.9999995097" y_displacement_sum="-4.90271137811e-07" />
    <node avg_slowdown_ratio="0.0" id="node_14x02" junction="True" old_x="1400.0" old_y="200.0" type="right_before_left" weight_num="4.0" weight_sum="0.0" x="1400.0" x_displacement_sum="-2.52203714081e-15" y="200.0" y_displacement_sum="-3.92371998786e-11" />
    <node avg_slowdown_ratio="0.0" id="node_14x03" junction="True" old_x="1400.0" old_y="300.0" type="right_before_left" weight_num="4.0" weight_sum="0.0" x="1400.0" x_displacement_sum="1.93630689629e-11" y="300.0" y_displacement_sum="-3.38816864786e-11" />
    <node avg_slowdown_ratio="0.0" id="node_14x04" junction="True" old_x="1400.0" old_y="400.0" type="right_before_left" weight_num="4.0" weight_sum="0.0" x="1400.0000001" x_displacement_sum="9.63230430683e-08" y="399.999999856" y_displacement_sum="-1.44484561687e-07" />
    <node avg_slowdown_ratio="0.0" id="node_14x05" junction="True" old_x="1400.0" old_y="500.0" type="right_before_left" weight_num="4.0" weight_sum="0.0" x="1400.00031098" x_displacement_sum="0.000310981937984" y="499.999611273" y_displacement_sum="-0.000388727422471" />
    <node avg_slowdown_ratio="0.0" id="node_14x06" junction="True" old_x="1400.0" old_y="600.0" type="right_before_left" weight_num="4.0" weight_sum="0.0" x="1400.54095004" x_displacement_sum="0.540950036545" y="599.459049963" y_displacement_sum="-0.540950036545" />
[...]
    <node avg_slowdown_ratio="0.0" id="node_17x09" junction="True" old_x="1700.0" old_y="900.0" type="right_before_left" weight_num="4.0" weight_sum="0.0" x="1700.00000068" x_displacement_sum="6.83803663071e-07" y="899.999999902" y_displacement_sum="-9.76862416866e-08" />
    <node avg_slowdown_ratio="0.0" id="node_17x10" junction="True" old_x="1700.0" old_y="1000.0" type="right_before_left" weight_num="4.0" weight_sum="0.0" x="1700.00000139" x_displacement_sum="1.39179428309e-06" y="1000.0" y_displacement_sum="-1.68647834281e-15" />
    <node avg_slowdown_ratio="0.0" id="node_17x11" junction="True" old_x="1700.0" old_y="1100.0" type="right_before_left" weight_num="4.0" weight_sum="0.0" x="1700.00000068" x_displacement_sum="6.83803663071e-07" y="1100.0000001" y_displacement_sum="9.76862383137e-08" />
    <node avg_slowdown_ratio="0.0" id="node_17x12" junction="True" old_x="1700.0" old_y="1200.0" type="right_before_left" weight_num="4.0" weight_sum="0.0" x="1700.00000008" x_displacement_sum="8.45421530683e-08" y="1200.00000002" y_displacement_sum="2.41548983134e-08" />
    <node avg_slowdown_ratio="0.0" id="node_17x13" junction="True" old_x="1700.0" old_y="1300.0" type="right_before_left" weight_num="4.0" weight_sum="0.0" x="1700.0" x_displacement_sum="2.94651306897e-09" y="1300.0" y_displacement_sum="1.26278831352e-09" />
    <node avg_slowdown_ratio="0.0" id="node_17x14" junction="True" old_x="1700.0" old_y="1400.0" type="right_before_left" weight_num="4.0" weight_sum="0.0" x="1700.0" x_displacement_sum="3.38830689629e-11" y="1400.0" y_displacement_sum="1.93583135216e-11" />
    <node avg_slowdown_ratio="0.0" id="node_17x15" junction="True" old_x="1700.0" old_y="1500.0" type="right_before_left" weight_num="4.0" weight_sum="0.0" x="1700.0" x_displacement_sum="1.53068962859e-13" y="1500.0" y_displacement_sum="1.08313521647e-13" />
    <node avg_slowdown_ratio="0.0" id="node_17x16" junction="True" old_x="1700.0" old_y="1600.0" type="right_before_left" weight_num="4.0" weight_sum="0.0" x="1700.0" x_displacement_sum="3.06896285919e-15" y="1600.0" y_displacement_sum="-1.68647834281e-15" />
    <node avg_slowdown_ratio="0.0" id="node_17x17" junction="True" old_x="1700.0" old_y="1700.0" type="right_before_left" weight_num="4.0" weight_sum="0.0" x="1700.0" x_displacement_sum="3.06896285919e-15" y="1700.0" y_displacement_sum="-1.68647834281e-15" />
    <node avg_slowdown_ratio="0.0" id="node_17x18" junction="True" old_x="1700.0" old_y="1800.0" type="right_before_left" weight_num="4.0" weight_sum="0.0" x="1700.0" x_displacement_sum="4.47883859191e-16" y="1800.0" y_displacement_sum="3.92380375031e-11" />
    <node avg_slowdown_ratio="0.0" id="node_17x19" junction="True" old_x="1700.0" old_y="1900.0" type="right_before_left" weight_num="4.0" weight_sum="0.0" x="1700.0" x_displacement_sum="1.01791328367e-14" y="1900.00000049" y_displacement_sum="4.9027113698e-07" />
    <node avg_slowdown_ratio="0.0" id="node_17x20" junction="True" old_x="1700.0" old_y="2000.0" type="right_before_left" weight_num="3.0" weight_sum="0.0" x="1700.0" x_displacement_sum="2.22780386855e-15" y="2000.00468459" y_displacement_sum="0.004684586768" />
    <node avg_slowdown_ratio="0.0" id="node_18x00" junction="True" old_x="1800.0" old_y="0.0" type="right_before_left" weight_num="3.0" weight_sum="0.0" x="1800.0" x_displacement_sum="3.36388936531e-11" y="-0.00468458676612" y_displacement_sum="-0.00468458676612" />
    <node avg_slowdown_ratio="0.0" id="node_18x01" junction="True" old_x="1800.0" old_y="100.0" type="right_before_left" weight_num="4.0" weight_sum="0.0" x="1800.0" x_displacement_sum="3.91628616531e-11" y="99.9999995097" y_displacement_sum="-4.90271093402e-07" />
    <node avg_slowdown_ratio="0.0" id="node_18x02" junction="True" old_x="1800.0" old_y="200.0" type="right_before_left" weight_num="4.0" weight_sum="0.0" x="1800.0" x_displacement_sum="3.92327596531e-11" y="200.0" y_displacement_sum="-3.92371998786e-11" />
    <node avg_slowdown_ratio="0.0" id="node_18x03" junction="True" old_x="1800.0" old_y="300.0" type="right_before_left" weight_num="4.0" weight_sum="0.0" x="1800.0" x_displacement_sum="3.92383506531e-11" y="300.0" y_displacement_sum="-1.68647834721e-15" />
    <node avg_slowdown_ratio="0.0" id="node_18x04" junction="True" old_x="1800.0" old_y="400.0" type="right_before_left" weight_num="4.0" weight_sum="0.0" x="1800.0" x_displacement_sum="3.92383506531e-11" y="400.0" y_displacement_sum="-1.68647834721e-15" />
    <node avg_slowdown_ratio="0.0" id="node_18x05" junction="True" old_x="1800.0" old_y="500.0" type="right_before_left" weight_num="4.0" weight_sum="0.0" x="1800.0" x_displacement_sum="3.92383506531e-11" y="500.0" y_displacement_sum="-1.68647834721e-15" />
    <node avg_slowdown_ratio="0.0" id="node_18x06" junction="True" old_x="1800.0" old_y="600.0" type="right_before_left" weight_num="4.0" weight_sum="0.0" x="1800.0" x_displacement_sum="3.92383506531e-11" y="600.0" y_displacement_sum="-1.68647834721e-15" />
    <node avg_slowdown_ratio="0.0" id="node_18x07" junction="True" old_x="1800.0" old_y="700.0" type="right_before_left" weight_num="4.0" weight_sum="0.0" x="1800.0" x_displacement_sum="3.95883506531e-11" y="700.0" y_displacement_sum="-1.31686478347e-13" />
    <node avg_slowdown_ratio="0.0" id="node_18x08" junction="True" old_x="1800.0" old_y="800.0" type="right_before_left" weight_num="4.0" weight_sum="0.0" x="1800.0" x_displacement_sum="4.54483506531e-11" y="800.0" y_displacement_sum="-1.55168647835e-12" />
    <node avg_slowdown_ratio="0.0" id="node_18x09" junction="True" old_x="1800.0" old_y="900.0" type="right_before_left" weight_num="4.0" weight_sum="0.0" x="1800.0" x_displacement_sum="7.79583506531e-11" y="900.0" y_displacement_sum="-4.84168647855e-12" />
    <node avg_slowdown_ratio="0.0" id="node_18x10" junction="True" old_x="1800.0" old_y="1000.0" type="right_before_left" weight_num="4.0" weight_sum="0.0" x="1800.0" x_displacement_sum="1.11528350653e-10" y="1000.0" y_displacement_sum="-1.68647834721e-15" />
    <node avg_slowdown_ratio="0.0" id="node_18x11" junction="True" old_x="1800.0" old_y="1100.0" type="right_before_left" weight_num="4.0" weight_sum="0.0" x="1800.0" x_displacement_sum="7.79583506531e-11" y="1100.0" y_displacement_sum="4.83831352165e-12" />
    <node avg_slowdown_ratio="0.0" id="node_18x12" junction="True" old_x="1800.0" old_y="1200.0" type="right_before_left" weight_num="4.0" weight_sum="0.0" x="1800.0" x_displacement_sum="4.54483506531e-11" y="1200.0" y_displacement_sum="1.55831352165e-12" />
    <node avg_slowdown_ratio="0.0" id="node_18x13" junction="True" old_x="1800.0" old_y="1300.0" type="right_before_left" weight_num="4.0" weight_sum="0.0" x="1800.0" x_displacement_sum="3.95883506531e-11" y="1300.0" y_displacement_sum="1.28313521652e-13" />
    <node avg_slowdown_ratio="0.0" id="node_18x14" junction="True" old_x="1800.0" old_y="1400.0" type="right_before_left" weight_num="4.0" weight_sum="0.0" x="1800.0" x_displacement_sum="3.92383506531e-11" y="1400.0" y_displacement_sum="-1.68647834721e-15" />
    <node avg_slowdown_ratio="0.0" id="node_18x15" junction="True" old_x="1800.0" old_y="1500.0" type="right_before_left" weight_num="4.0" weight_sum="0.0" x="1800.0" x_displacement_sum="3.92383506531e-11" y="1500.0" y_displacement_sum="-1.68647834721e-15" />
    <node avg_slowdown_ratio="0.0" id="node_18x16" junction="True" old_x="1800.0" old_y="1600.0" type="right_before_left" weight_num="4.0" weight_sum="0.0" x="1800.0" x_displacement_sum="3.92383506531e-11" y="1600.0" y_displacement_sum="-1.68647834721e-15" />
    <node avg_slowdown_ratio="0.0" id="node_18x17" junction="True" old_x="1800.0" old_y="1700.0" type="right_before_left" weight_num="4.0" weight_sum="0.0" x="1800.0" x_displacement_sum="3.92383506531e-11" y="1700.0" y_displacement_sum="-1.68647834721e-15" />
    <node avg_slowdown_ratio="0.0" id="node_18x18" junction="True" old_x="1800.0" old_y="1800.0" type="right_before_left" weight_num="4.0" weight_sum="0.0" x="1800.0" x_displacement_sum="3.92357295741e-11" y="1800.0" y_displacement_sum="3.92380375031e-11" />
    <node avg_slowdown_ratio="0.0" id="node_18x19" junction="True" old_x="1800.0" old_y="1900.0" type="right_before_left" weight_num="4.0" weight_sum="0.0" x="1800.0" x_displacement_sum="3.91788474416e-11" y="1900.00000049" y_displacement_sum="4.90271092571e-07" />
    <node avg_slowdown_ratio="0.0" id="node_18x20" junction="True" old_x="1800.0" old_y="2000.0" type="right_before_left" weight_num="3.0" weight_sum="0.0" x="1800.0" x_displacement_sum="3.364198545e-11" y="2000.00468459" y_displacement_sum="0.00468458676612" />
    <node avg_slowdown_ratio="0.0" id="node_19x00" junction="True" old_x="1900.0" old_y="0.0" type="right_before_left" weight_num="3.0" weight_sum="0.0" x="1900.00000045" x_displacement_sum="4.5126495787e-07" y="-0.00468456721376" y_displacement_sum="-0.00468456721376" />
    <node avg_slowdown_ratio="0.0" id="node_19x01" junction="True" old_x="1900.0" old_y="100.0" type="right_before_left" weight_num="4.0" weight_sum="0.0" x="1900.00000049" x_displacement_sum="4.9016696787e-07" y="99.9999995098" y_displacement_sum="-4.90166976687e-07" />
    <node avg_slowdown_ratio="0.0" id="node_19x02" junction="True" old_x="1900.0" old_y="200.0" type="right_before_left" weight_num="4.0" weight_sum="0.0" x="1900.00000049" x_displacement_sum="4.9027108787e-07" y="200.0" y_displacement_sum="-3.9170586521e-11" />
    <node avg_slowdown_ratio="0.0" id="node_19x03" junction="True" old_x="1900.0" old_y="300.0" type="right_before_left" weight_num="4.0" weight_sum="0.0" x="1900.00000049" x_displacement_sum="4.9027113787e-07" y="300.0" y_displacement_sum="-1.68652105328e-15" />
    <node avg_slowdown_ratio="0.0" id="node_19x04" junction="True" old_x="1900.0" old_y="400.0" type="right_before_left" weight_num="4.0" weight_sum="0.0" x="1900.00000049" x_displacement_sum="4.9027113787e-07" y="400.0" y_displacement_sum="-1.68652105328e-15" />
    <node avg_slowdown_ratio="0.0" id="node_19x05" junction="True" old_x="1900.0" old_y="500.0" type="right_before_left" weight_num="4.0" weight_sum="0.0" x="1900.00000049" x_displacement_sum="4.9027113787e-07" y="500.0" y_displacement_sum="-1.68652105328e-15" />
    <node avg_slowdown_ratio="0.0" id="node_19x06" junction="True" old_x="1900.0" old_y="600.0" type="right_before_left" weight_num="4.0" weight_sum="0.0" x="1900.00000049" x_displacement_sum="4.9027113787e-07" y="600.0" y_displacement_sum="-1.68652105328e-15" />
    <node avg_slowdown_ratio="0.0" id="node_19x07" junction="True" old_x="1900.0" old_y="700.0" type="right_before_left" weight_num="4.0" weight_sum="0.0" x="1900.00000049" x_displacement_sum="4.9027113787e-07" y="700.0" y_displacement_sum="-1.68652105328e-15" />
    <node avg_slowdown_ratio="0.0" id="node_19x08" junction="True" old_x="1900.0" old_y="800.0" type="right_before_left" weight_num="4.0" weight_sum="0.0" x="1900.00000049" x_displacement_sum="4.9027113787e-07" y="800.0" y_displacement_sum="-1.68652105328e-15" />
    <node avg_slowdown_ratio="0.0" id="node_19x09" junction="True" old_x="1900.0" old_y="900.0" type="right_before_left" weight_num="4.0" weight_sum="0.0" x="1900.00000049" x_displacement_sum="4.9027113787e-07" y="900.0" y_displacement_sum="-1.68652105328e-15" />
    <node avg_slowdown_ratio="0.0" id="node_19x10" junction="True" old_x="1900.0" old_y="1000.0" type="right_before_left" weight_num="4.0" weight_sum="0.0" x="1900.00000049" x_displacement_sum="4.9027113787e-07" y="1000.0" y_displacement_sum="-1.68652105328e-15" />
    <node avg_slowdown_ratio="0.0" id="node_19x11" junction="True" old_x="1900.0" old_y="1100.0" type="right_before_left" weight_num="4.0" weight_sum="0.0" x="1900.00000049" x_displacement_sum="4.9027113787e-07" y="1100.0" y_displacement_sum="-1.68652105328e-15" />
    <node avg_slowdown_ratio="0.0" id="node_19x12" junction="True" old_x="1900.0" old_y="1200.0" type="right_before_left" weight_num="4.0" weight_sum="0.0" x="1900.00000049" x_displacement_sum="4.9027113787e-07" y="1200.0" y_displacement_sum="-1.68652105328e-15" />
    <node avg_slowdown_ratio="0.0" id="node_19x13" junction="True" old_x="1900.0" old_y="1300.0" type="right_before_left" weight_num="4.0" weight_sum="0.0" x="1900.00000049" x_displacement_sum="4.9027113787e-07" y="1300.0" y_displacement_sum="-1.68652105328e-15" />
    <node avg_slowdown_ratio="0.0" id="node_19x14" junction="True" old_x="1900.0" old_y="1400.0" type="right_before_left" weight_num="4.0" weight_sum="0.0" x="1900.00000049" x_displacement_sum="4.9027113787e-07" y="1400.0" y_displacement_sum="-1.68652105328e-15" />
    <node avg_slowdown_ratio="0.0" id="node_19x15" junction="True" old_x="1900.0" old_y="1500.0" type="right_before_left" weight_num="4.0" weight_sum="0.0" x="1900.00000049" x_displacement_sum="4.9027113787e-07" y="1500.0" y_displacement_sum="-1.68652105328e-15" />
    <node avg_slowdown_ratio="0.0" id="node_19x16" junction="True" old_x="1900.0" old_y="1600.0" type="right_before_left" weight_num="4.0" weight_sum="0.0" x="1900.00000049" x_displacement_sum="4.9027113787e-07" y="1600.0" y_displacement_sum="-1.68652105328e-15" />
    <node avg_slowdown_ratio="0.0" id="node_19x17" junction="True" old_x="1900.0" old_y="1700.0" type="right_before_left" weight_num="4.0" weight_sum="0.0" x="1900.00000049" x_displacement_sum="4.9027113787e-07" y="1700.0" y_displacement_sum="-1.68652105328e-15" />
    <node avg_slowdown_ratio="0.0" id="node_19x18" junction="True" old_x="1900.0" old_y="1800.0" type="right_before_left" weight_num="4.0" weight_sum="0.0" x="1900.00000049" x_displacement_sum="4.9027109084e-07" y="1800.0" y_displacement_sum="3.91714241416e-11" />
    <node avg_slowdown_ratio="0.0" id="node_19x19" junction="True" old_x="1900.0" old_y="1900.0" type="right_before_left" weight_num="4.0" weight_sum="0.0" x="1900.00000049" x_displacement_sum="4.90166983856e-07" y="1900.00000049" y_displacement_sum="4.90166975856e-07" />
    <node avg_slowdown_ratio="0.0" id="node_19x20" junction="True" old_x="1900.0" old_y="2000.0" type="right_before_left" weight_num="3.0" weight_sum="0.0" x="1900.00000045" x_displacement_sum="4.51264960962e-07" y="2000.00468457" y_displacement_sum="0.00468456721376" />
    <node avg_slowdown_ratio="0.0" id="node_20x00" junction="True" old_x="2000.0" old_y="0.0" type="right_before_left" weight_num="2.0" weight_sum="0.0" x="2000.00461239" x_displacement_sum="0.00461239294851" y="-0.00461239294851" y_displacement_sum="-0.00461239294851" />
    <node avg_slowdown_ratio="0.0" id="node_20x01" junction="True" old_x="2000.0" old_y="100.0" type="right_before_left" weight_num="3.0" weight_sum="0.0" x="2000.00468457" x_displacement_sum="0.00468456721375" y="99.9999995487" y_displacement_sum="-4.51264961705e-07" />
    <node avg_slowdown_ratio="0.0" id="node_20x02" junction="True" old_x="2000.0" old_y="200.0" type="right_before_left" weight_num="3.0" weight_sum="0.0" x="2000.00468459" x_displacement_sum="0.00468458676611" y="200.0" y_displacement_sum="-3.3641705152e-11" />
    <node avg_slowdown_ratio="0.0" id="node_20x03" junction="True" old_x="2000.0" old_y="300.0" type="right_before_left" weight_num="3.0" weight_sum="0.0" x="2000.00468459" x_displacement_sum="0.004684586768" y="300.0" y_displacement_sum="-1.70415203146e-15" />
    <node avg_slowdown_ratio="0.0" id="node_20x04" junction="True" old_x="2000.0" old_y="400.0" type="right_before_left" weight_num="3.0" weight_sum="0.0" x="2000.00468459" x_displacement_sum="0.004684586768" y="400.0" y_displacement_sum="-1.70415203146e-15" />
    <node avg_slowdown_ratio="0.0" id="node_20x05" junction="True" old_x="2000.0" old_y="500.0" type="right_before_left" weight_num="3.0" weight_sum="0.0" x="2000.00468459" x_displacement_sum="0.004684586768" y="500.0" y_displacement_sum="-1.70415203146e-15" />
    <node avg_slowdown_ratio="0.0" id="node_20x06" junction="True" old_x="2000.0" old_y="600.0" type="right_before_left" weight_num="3.0" weight_sum="0.0" x="2000.00468459" x_displacement_sum="0.004684586768" y="600.0" y_displacement_sum="-1.70415203146e-15" />
    <node avg_slowdown_ratio="0.0" id="node_20x07" junction="True" old_x="2000.0" old_y="700.0" type="right_before_left" weight_num="3.0" weight_sum="0.0" x="2000.00468459" x_displacement_sum="0.004684586768" y="700.0" y_displacement_sum="-1.70415203146e-15" />
    <node avg_slowdown_ratio="0.0" id="node_20x08" junction="True" old_x="2000.0" old_y="800.0" type="right_before_left" weight_num="3.0" weight_sum="0.0" x="2000.00468459" x_displacement_sum="0.004684586768" y="800.0" y_displacement_sum="-1.70415203146e-15" />
    <node avg_slowdown_ratio="0.0" id="node_20x09" junction="True" old_x="2000.0" old_y="900.0" type="right_before_left" weight_num="3.0" weight_sum="0.0" x="2000.00468459" x_displacement_sum="0.004684586768" y="900.0" y_displacement_sum="-1.70415203146e-15" />
    <node avg_slowdown_ratio="0.0" id="node_20x10" junction="True" old_x="2000.0" old_y="1000.0" type="right_before_left" weight_num="3.0" weight_sum="0.0" x="2000.00468459" x_displacement_sum="0.004684586768" y="1000.0" y_displacement_sum="-1.70415203146e-15" />
    <node avg_slowdown_ratio="0.0" id="node_20x11" junction="True" old_x="2000.0" old_y="1100.0" type="right_before_left" weight_num="3.0" weight_sum="0.0" x="2000.00468459" x_displacement_sum="0.004684586768" y="1100.0" y_displacement_sum="-1.70415203146e-15" />
    <node avg_slowdown_ratio="0.0" id="node_20x12" junction="True" old_x="2000.0" old_y="1200.0" type="right_before_left" weight_num="3.0" weight_sum="0.0" x="2000.00468459" x_displacement_sum="0.004684586768" y="1200.0" y_displacement_sum="-1.70415203146e-15" />
    <node avg_slowdown_ratio="0.0" id="node_20x13" junction="True" old_x="2000.0" old_y="1300.0" type="right_before_left" weight_num="3.0" weight_sum="0.0" x="2000.00468459" x_displacement_sum="0.004684586768" y="1300.0" y_displacement_sum="-1.70415203146e-15" />
    <node avg_slowdown_ratio="0.0" id="node_20x14" junction="True" old_x="2000.0" old_y="1400.0" type="right_before_left" weight_num="3.0" weight_sum="0.0" x="2000.00468459" x_displacement_sum="0.004684586768" y="1400.0" y_displacement_sum="-1.70415203146e-15" />
    <node avg_slowdown_ratio="0.0" id="node_20x15" junction="True" old_x="2000.0" old_y="1500.0" type="right_before_left" weight_num="3.0" weight_sum="0.0" x="2000.00468459" x_displacement_sum="0.004684586768" y="1500.0" y_displacement_sum="-1.70415203146e-15" />
    <node avg_slowdown_ratio="0.0" id="node_20x16" junction="True" old_x="2000.0" old_y="1600.0" type="right_before_left" weight_num="3.0" weight_sum="0.0" x="2000.00468459" x_displacement_sum="0.004684586768" y="1600.0" y_displacement_sum="-1.70415203146e-15" />
    <node avg_slowdown_ratio="0.0" id="node_20x17" junction="True" old_x="2000.0" old_y="1700.0" type="right_before_left" weight_num="3.0" weight_sum="0.0" x="2000.00468459" x_displacement_sum="0.004684586768" y="1700.0" y_displacement_sum="-1.70415203146e-15" />
    <node avg_slowdown_ratio="0.0" id="node_20x18" junction="True" old_x="2000.0" old_y="1800.0" type="right_before_left" weight_num="3.0" weight_sum="0.0" x="2000.00468459" x_displacement_sum="0.00468458676611" y="1800.0" y_displacement_sum="3.364252845e-11" />
    <node avg_slowdown_ratio="0.0" id="node_20x19" junction="True" old_x="2000.0" old_y="1900.0" type="right_before_left" weight_num="3.0" weight_sum="0.0" x="2000.00468457" x_displacement_sum="0.00468456721376" y="1900.00000045" y_displacement_sum="4.51264960962e-07" />
    <node avg_slowdown_ratio="0.0" id="node_20x20" junction="True" old_x="2000.0" old_y="2000.0" type="right_before_left" weight_num="2.0" weight_sum="0.0" x="2000.00461239" x_displacement_sum="0.00461239294851" y="2000.00461239" y_displacement_sum="0.00461239294851" />
</nodes>