<?xml version="1.0" encoding="UTF-8"?>

<!-- generated on 02/05/17 11:34:36 by SUMO netconvert Version 0.27.1
<?xml version="1.0" encoding="UTF-8"?>

<configuration xmlns:xsi="http://www.w3.org/2001/XMLSchema-instance" xsi:noNamespaceSchemaLocation="http://sumo.dlr.de/xsd/netconvertConfiguration.xsd">

    <input>
        <node-files value="C:\Users\zs633\capstone\5_logistic\test_1\7_displaced\logistic.nod.xml"/>
        <edge-files value="C:\Users\zs633\capstone\5_logistic\test_1\7_displaced\logistic.edg.xml"/>
        <connection-files value="C:\Users\zs633\capstone\5_logistic\test_1\4_plain\test.con.xml"/>
        <tllogic-files value="C:\Users\zs633\capstone\5_logistic\test_1\4_plain\test.tll.xml"/>
    </input>

    <output>
        <output-file value="C:\Users\zs633\capstone\5_logistic\test_1\9_output_net\logistic.net.xml"/>
    </output>

    <processing>
        <ignore-errors value="true"/>
        <ignore-errors.edge-type value="true"/>
    </processing>

    <report>
        <verbose value="true"/>
        <xml-validation value="never"/>
        <no-warnings value="true"/>
    </report>

</configuration>
-->

<net version="0.27" xmlns:xsi="http://www.w3.org/2001/XMLSchema-instance" xsi:noNamespaceSchemaLocation="http://sumo.dlr.de/xsd/net_file.xsd">

    <location netOffset="349.75,349.75" convBoundary="0.00,0.00,2699.49,2699.49" origBoundary="-349.75,-349.75,2349.75,2349.75" projParameter="!"/>

    <edge id=":node_00x00_0" function="internal">
        <lane id=":node_00x00_0_0" index="0" disallow="tram rail_urban rail rail_electric ship" speed="13.89" length="1.33" shape="138.33,137.41 138.02,137.57 137.77,137.77 137.57,138.02 137.41,138.33"/>
    </edge>
    <edge id=":node_00x00_1" function="internal">
        <lane id=":node_00x00_1_0" index="0" disallow="tram rail_urban rail rail_electric ship" speed="13.89" length="4.09" shape="134.34,137.14 134.80,136.21 135.43,135.43 136.21,134.80 137.14,134.34"/>
    </edge>
    <edge id=":node_00x01_0" function="internal">
        <lane id=":node_00x01_0_0" index="0" disallow="tram rail_urban rail rail_electric ship" speed="13.89" length="8.37" shape="81.38,298.94 78.51,299.76 76.38,300.70 74.99,301.75 74.35,302.91"/>
    </edge>
    <edge id=":node_00x01_1" function="internal">
        <lane id=":node_00x01_1_0" index="0" disallow="tram rail_urban rail rail_electric ship" speed="13.89" length="14.34" shape="81.38,298.94 77.02,299.40 74.46,298.29 73.71,295.61 74.75,291.35"/>
    </edge>
    <edge id=":node_00x01_2" function="internal">
        <lane id=":node_00x01_2_0" index="0" disallow="tram rail_urban rail rail_electric ship" speed="13.89" length="6.02" shape="77.83,292.54 77.39,294.33 77.71,295.46 78.78,295.92 80.61,295.73"/>
    </edge>
    <edge id=":node_00x01_3" function="internal">
        <lane id=":node_00x01_3_0" index="0" disallow="tram rail_urban rail rail_electric ship" speed="13.89" length="10.94" shape="77.83,292.54 74.35,302.91"/>
    </edge>
    <edge id=":node_00x01_4" function="internal">
        <lane id=":node_00x01_4_0" index="0" disallow="tram rail_urban rail rail_electric ship" speed="13.89" length="11.42" shape="71.13,302.17 71.91,299.08 72.69,296.68 73.58,294.33 74.75,291.35"/>
    </edge>
    <edge id=":node_00x01_5" function="internal">
        <lane id=":node_00x01_5_0" index="0" disallow="tram rail_urban rail rail_electric ship" speed="13.89" length="12.01" shape="71.13,302.17 72.10,300.11 74.01,298.34 76.84,296.88 80.61,295.73"/>
    </edge>
    <edge id=":node_00x02_0" function="internal">
        <lane id=":node_00x02_0_0" index="0" disallow="tram rail_urban rail rail_electric ship" speed="13.89" length="6.62" shape="42.33,463.31 40.19,463.75 38.60,464.44 37.58,465.40 37.12,466.63"/>
    </edge>
    <edge id=":node_00x02_1" function="internal">
        <lane id=":node_00x02_1_0" index="0" disallow="tram rail_urban rail rail_electric ship" speed="13.89" length="12.33" shape="42.33,463.31 38.75,463.26 36.47,462.03 35.48,459.64 35.79,456.08"/>
    </edge>
    <edge id=":node_00x02_2" function="internal">
        <lane id=":node_00x02_2_0" index="0" disallow="tram rail_urban rail rail_electric ship" speed="13.89" length="5.49" shape="39.00,456.82 38.87,458.40 39.31,459.47 40.32,460.01 41.92,460.04"/>
    </edge>
    <edge id=":node_00x02_3" function="internal">
        <lane id=":node_00x02_3_0" index="0" disallow="tram rail_urban rail rail_electric ship" speed="13.89" length="9.99" shape="39.00,456.82 37.12,466.63"/>
    </edge>
    <edge id=":node_00x02_4" function="internal">
        <lane id=":node_00x02_4_0" index="0" disallow="tram rail_urban rail rail_electric ship" speed="13.89" length="10.29" shape="33.85,466.19 35.79,456.08"/>
    </edge>
    <edge id=":node_00x02_5" function="internal">
        <lane id=":node_00x02_5_0" index="0" disallow="tram rail_urban rail rail_electric ship" speed="13.89" length="10.97" shape="33.85,466.19 34.62,463.84 36.22,462.04 38.65,460.77 41.92,460.04"/>
    </edge>
    <edge id=":node_00x03_0" function="internal">
        <lane id=":node_00x03_0_0" index="0" disallow="tram rail_urban rail rail_electric ship" speed="13.89" length="5.80" shape="22.41,605.81 20.65,606.10 19.36,606.72 18.54,607.67 18.20,608.95"/>
    </edge>
    <edge id=":node_00x03_1" function="internal">
        <lane id=":node_00x03_1_0" index="0" disallow="tram rail_urban rail rail_electric ship" speed="13.89" length="11.37" shape="22.41,605.81 19.22,605.55 17.07,604.30 15.99,602.08 15.96,598.87"/>
    </edge>
    <edge id=":node_00x03_2" function="internal">
        <lane id=":node_00x03_2_0" index="0" disallow="tram rail_urban rail rail_electric ship" speed="13.89" length="5.25" shape="19.23,599.31 19.24,600.79 19.75,601.82 20.73,602.40 22.21,602.52"/>
    </edge>
    <edge id=":node_00x03_3" function="internal">
        <lane id=":node_00x03_3_0" index="0" disallow="tram rail_urban rail rail_electric ship" speed="13.89" length="9.69" shape="19.23,599.31 18.20,608.95"/>
    </edge>
    <edge id=":node_00x03_4" function="internal">
        <lane id=":node_00x03_4_0" index="0" disallow="tram rail_urban rail rail_electric ship" speed="13.89" length="9.89" shape="14.90,608.71 15.96,598.87"/>
    </edge>
    <edge id=":node_00x03_5" function="internal">
        <lane id=":node_00x03_5_0" index="0" disallow="tram rail_urban rail rail_electric ship" speed="13.89" length="10.61" shape="14.90,608.71 15.52,606.16 16.94,604.27 19.17,603.06 22.21,602.52"/>
    </edge>
    <edge id=":node_00x04_0" function="internal">
        <lane id=":node_00x04_0_0" index="0" disallow="tram rail_urban rail rail_electric ship" speed="13.89" length="5.38" shape="12.98,729.28 11.42,729.51 10.29,730.11 9.59,731.06 9.32,732.38"/>
    </edge>
    <edge id=":node_00x04_1" function="internal">
        <lane id=":node_00x04_1_0" index="0" disallow="tram rail_urban rail rail_electric ship" speed="13.89" length="10.85" shape="12.98,729.28 9.98,728.94 7.92,727.70 6.78,725.58 6.56,722.57"/>
    </edge>
    <edge id=":node_00x04_2" function="internal">
        <lane id=":node_00x04_2_0" index="0" disallow="tram rail_urban rail rail_electric ship" speed="13.89" length="5.13" shape="9.86,722.81 9.96,724.23 10.49,725.24 11.47,725.82 12.89,725.98"/>
    </edge>
    <edge id=":node_00x04_3" function="internal">
        <lane id=":node_00x04_3_0" index="0" disallow="tram rail_urban rail rail_electric ship" speed="13.89" length="9.58" shape="9.86,722.81 9.32,732.38"/>
    </edge>
    <edge id=":node_00x04_4" function="internal">
        <lane id=":node_00x04_4_0" index="0" disallow="tram rail_urban rail rail_electric ship" speed="13.89" length="9.70" shape="6.02,732.26 6.56,722.57"/>
    </edge>
    <edge id=":node_00x04_5" function="internal">
        <lane id=":node_00x04_5_0" index="0" disallow="tram rail_urban rail rail_electric ship" speed="13.89" length="10.45" shape="6.02,732.26 6.53,729.58 7.85,727.65 9.97,726.45 12.89,725.98"/>
    </edge>
    <edge id=":node_00x05_0" function="internal">
        <lane id=":node_00x05_0_0" index="0" disallow="tram rail_urban rail rail_electric ship" speed="13.89" length="5.18" shape="8.66,841.05 7.20,841.26 6.16,841.85 5.52,842.81 5.29,844.15"/>
    </edge>
    <edge id=":node_00x05_1" function="internal">
        <lane id=":node_00x05_1_0" index="0" disallow="tram rail_urban rail rail_electric ship" speed="13.89" length="10.58" shape="8.66,841.05 5.76,840.68 3.73,839.46 2.56,837.40 2.25,834.49"/>
    </edge>
    <edge id=":node_00x05_2" function="internal">
        <lane id=":node_00x05_2_0" index="0" disallow="tram rail_urban rail rail_electric ship" speed="13.89" length="5.06" shape="5.55,834.61 5.70,836.00 6.26,836.99 7.23,837.57 8.62,837.75"/>
    </edge>
    <edge id=":node_00x05_3" function="internal">
        <lane id=":node_00x05_3_0" index="0" disallow="tram rail_urban rail rail_electric ship" speed="13.89" length="9.54" shape="5.55,834.61 5.29,844.15"/>
    </edge>
    <edge id=":node_00x05_4" function="internal">
        <lane id=":node_00x05_4_0" index="0" disallow="tram rail_urban rail rail_electric ship" speed="13.89" length="9.60" shape="1.99,844.09 2.25,834.49"/>
    </edge>
    <edge id=":node_00x05_5" function="internal">
        <lane id=":node_00x05_5_0" index="0" disallow="tram rail_urban rail rail_electric ship" speed="13.89" length="10.38" shape="1.99,844.09 2.44,841.35 3.70,839.38 5.76,838.18 8.62,837.75"/>
    </edge>
    <edge id=":node_00x06_0" function="internal">
        <lane id=":node_00x06_0_0" index="0" disallow="tram rail_urban rail rail_electric ship" speed="13.89" length="5.09" shape="6.66,946.62 5.26,946.82 4.25,947.41 3.64,948.37 3.42,949.72"/>
    </edge>
    <edge id=":node_00x06_1" function="internal">
        <lane id=":node_00x06_1_0" index="0" disallow="tram rail_urban rail rail_electric ship" speed="13.89" length="10.45" shape="6.66,946.62 3.81,946.23 1.80,945.02 0.61,942.99 0.26,940.14"/>
    </edge>
    <edge id=":node_00x06_2" function="internal">
        <lane id=":node_00x06_2_0" index="0" disallow="tram rail_urban rail rail_electric ship" speed="13.89" length="5.03" shape="3.55,940.20 3.73,941.57 4.30,942.55 5.27,943.13 6.64,943.32"/>
    </edge>
    <edge id=":node_00x06_3" function="internal">
        <lane id=":node_00x06_3_0" index="0" disallow="tram rail_urban rail rail_electric ship" speed="13.89" length="9.52" shape="3.55,940.20 3.42,949.72"/>
    </edge>
    <edge id=":node_00x06_4" function="internal">
        <lane id=":node_00x06_4_0" index="0" disallow="tram rail_urban rail rail_electric ship" speed="13.89" length="9.54" shape="0.12,949.69 0.26,940.14"/>
    </edge>
    <edge id=":node_00x06_5" function="internal">
        <lane id=":node_00x06_5_0" index="0" disallow="tram rail_urban rail rail_electric ship" speed="13.89" length="10.35" shape="0.12,949.69 0.55,946.92 1.78,944.93 3.81,943.73 6.64,943.32"/>
    </edge>
    <edge id=":node_00x07_0" function="internal">
        <lane id=":node_00x07_0_0" index="0" disallow="tram rail_urban rail rail_electric ship" speed="13.89" length="5.05" shape="5.68,1049.17 4.29,1049.37 3.30,1049.95 2.71,1050.92 2.50,1052.27"/>
    </edge>
    <edge id=":node_00x07_1" function="internal">
        <lane id=":node_00x07_1_0" index="0" disallow="tram rail_urban rail rail_electric ship" speed="13.89" length="10.39" shape="5.68,1049.17 2.85,1048.78 0.84,1047.58 -0.35,1045.56 -0.73,1042.73"/>
    </edge>
    <edge id=":node_00x07_2" function="internal">
        <lane id=":node_00x07_2_0" index="0" disallow="tram rail_urban rail rail_electric ship" speed="13.89" length="5.02" shape="2.57,1042.76 2.75,1044.13 3.33,1045.10 4.30,1045.68 5.66,1045.87"/>
    </edge>
    <edge id=":node_00x07_3" function="internal">
        <lane id=":node_00x07_3_0" index="0" disallow="tram rail_urban rail rail_electric ship" speed="13.89" length="9.51" shape="2.57,1042.76 2.50,1052.27"/>
    </edge>
    <edge id=":node_00x07_4" function="internal">
        <lane id=":node_00x07_4_0" index="0" disallow="tram rail_urban rail rail_electric ship" speed="13.89" length="9.52" shape="-0.80,1052.25 -0.73,1042.73"/>
    </edge>
    <edge id=":node_00x07_5" function="internal">
        <lane id=":node_00x07_5_0" index="0" disallow="tram rail_urban rail rail_electric ship" speed="13.89" length="10.33" shape="-0.80,1052.25 -0.38,1049.47 0.83,1047.48 2.85,1046.28 5.66,1045.87"/>
    </edge>
    <edge id=":node_00x08_0" function="internal">
        <lane id=":node_00x08_0_0" index="0" disallow="tram rail_urban rail rail_electric ship" speed="13.89" length="5.03" shape="5.14,1150.36 3.77,1150.56 2.79,1151.14 2.20,1152.11 2.00,1153.46"/>
    </edge>
    <edge id=":node_00x08_1" function="internal">
        <lane id=":node_00x08_1_0" index="0" disallow="tram rail_urban rail rail_electric ship" speed="13.89" length="10.36" shape="5.14,1150.36 2.33,1149.96 0.32,1148.76 -0.87,1146.75 -1.26,1143.94"/>
    </edge>
    <edge id=":node_00x08_2" function="internal">
        <lane id=":node_00x08_2_0" index="0" disallow="tram rail_urban rail rail_electric ship" speed="13.89" length="5.01" shape="2.04,1143.96 2.23,1145.32 2.80,1146.29 3.77,1146.87 5.13,1147.06"/>
    </edge>
    <edge id=":node_00x08_3" function="internal">
        <lane id=":node_00x08_3_0" index="0" disallow="tram rail_urban rail rail_electric ship" speed="13.89" length="9.50" shape="2.04,1143.96 2.00,1153.46"/>
    </edge>
    <edge id=":node_00x08_4" function="internal">
        <lane id=":node_00x08_4_0" index="0" disallow="tram rail_urban rail rail_electric ship" speed="13.89" length="9.51" shape="-1.30,1153.45 -1.26,1143.94"/>
    </edge>
    <edge id=":node_00x08_5" function="internal">
        <lane id=":node_00x08_5_0" index="0" disallow="tram rail_urban rail rail_electric ship" speed="13.89" length="10.33" shape="-1.30,1153.45 -0.89,1150.66 0.32,1148.67 2.33,1147.47 5.13,1147.06"/>
    </edge>
    <edge id=":node_00x09_0" function="internal">
        <lane id=":node_00x09_0_0" index="0" disallow="tram rail_urban rail rail_electric ship" speed="13.89" length="9.51" shape="-1.57,1254.07 -1.55,1244.57"/>
    </edge>
    <edge id=":node_00x09_1" function="internal">
        <lane id=":node_00x09_1_0" index="0" disallow="tram rail_urban rail rail_electric ship" speed="13.89" length="10.33" shape="-1.57,1254.07 -1.16,1251.28 0.04,1249.28 2.05,1248.08 4.85,1247.68"/>
    </edge>
    <edge id=":node_00x09_2" function="internal">
        <lane id=":node_00x09_2_0" index="0" disallow="tram rail_urban rail rail_electric ship" speed="13.89" length="5.01" shape="4.85,1250.98 3.49,1251.17 2.52,1251.75 1.93,1252.72 1.73,1254.08"/>
    </edge>
    <edge id=":node_00x09_3" function="internal">
        <lane id=":node_00x09_3_0" index="0" disallow="tram rail_urban rail rail_electric ship" speed="13.89" length="10.34" shape="4.85,1250.98 2.05,1250.58 0.04,1249.38 -1.15,1247.37 -1.55,1244.57"/>
    </edge>
    <edge id=":node_00x09_4" function="internal">
        <lane id=":node_00x09_4_0" index="0" disallow="tram rail_urban rail rail_electric ship" speed="13.89" length="5.00" shape="1.75,1244.57 1.94,1245.93 2.52,1246.90 3.49,1247.48 4.85,1247.68"/>
    </edge>
    <edge id=":node_00x09_5" function="internal">
        <lane id=":node_00x09_5_0" index="0" disallow="tram rail_urban rail rail_electric ship" speed="13.89" length="9.50" shape="1.75,1244.57 1.73,1254.08"/>
    </edge>
    <edge id=":node_00x10_0" function="internal">
        <lane id=":node_00x10_0_0" index="0" disallow="tram rail_urban rail rail_electric ship" speed="13.89" length="9.51" shape="-1.65,1354.50 -1.65,1344.99"/>
    </edge>
    <edge id=":node_00x10_1" function="internal">
        <lane id=":node_00x10_1_0" index="0" disallow="tram rail_urban rail rail_electric ship" speed="13.89" length="10.33" shape="-1.65,1354.50 -1.25,1351.70 -0.05,1349.70 1.95,1348.50 4.75,1348.10"/>
    </edge>
    <edge id=":node_00x10_2" function="internal">
        <lane id=":node_00x10_2_0" index="0" disallow="tram rail_urban rail rail_electric ship" speed="13.89" length="5.00" shape="4.75,1351.40 3.40,1351.59 2.43,1352.17 1.85,1353.14 1.65,1354.50"/>
    </edge>
    <edge id=":node_00x10_3" function="internal">
        <lane id=":node_00x10_3_0" index="0" disallow="tram rail_urban rail rail_electric ship" speed="13.89" length="10.33" shape="4.75,1351.40 1.95,1351.00 -0.05,1349.80 -1.25,1347.79 -1.65,1344.99"/>
    </edge>
    <edge id=":node_00x10_4" function="internal">
        <lane id=":node_00x10_4_0" index="0" disallow="tram rail_urban rail rail_electric ship" speed="13.89" length="5.00" shape="1.65,1345.00 1.85,1346.35 2.43,1347.32 3.40,1347.90 4.75,1348.10"/>
    </edge>
    <edge id=":node_00x10_5" function="internal">
        <lane id=":node_00x10_5_0" index="0" disallow="tram rail_urban rail rail_electric ship" speed="13.89" length="9.50" shape="1.65,1345.00 1.65,1354.50"/>
    </edge>
    <edge id=":node_00x11_0" function="internal">
        <lane id=":node_00x11_0_0" index="0" disallow="tram rail_urban rail rail_electric ship" speed="13.89" length="9.51" shape="-1.55,1454.93 -1.57,1445.42"/>
    </edge>
    <edge id=":node_00x11_1" function="internal">
        <lane id=":node_00x11_1_0" index="0" disallow="tram rail_urban rail rail_electric ship" speed="13.89" length="10.34" shape="-1.55,1454.93 -1.15,1452.12 0.04,1450.12 2.05,1448.91 4.85,1448.52"/>
    </edge>
    <edge id=":node_00x11_2" function="internal">
        <lane id=":node_00x11_2_0" index="0" disallow="tram rail_urban rail rail_electric ship" speed="13.89" length="5.00" shape="4.85,1451.82 3.49,1452.01 2.52,1452.59 1.94,1453.56 1.75,1454.92"/>
    </edge>
    <edge id=":node_00x11_3" function="internal">
        <lane id=":node_00x11_3_0" index="0" disallow="tram rail_urban rail rail_electric ship" speed="13.89" length="10.33" shape="4.85,1451.82 2.05,1451.41 0.04,1450.21 -1.16,1448.21 -1.57,1445.42"/>
    </edge>
    <edge id=":node_00x11_4" function="internal">
        <lane id=":node_00x11_4_0" index="0" disallow="tram rail_urban rail rail_electric ship" speed="13.89" length="5.01" shape="1.73,1445.42 1.93,1446.77 2.52,1447.74 3.49,1448.32 4.85,1448.52"/>
    </edge>
    <edge id=":node_00x11_5" function="internal">
        <lane id=":node_00x11_5_0" index="0" disallow="tram rail_urban rail rail_electric ship" speed="13.89" length="9.50" shape="1.73,1445.42 1.75,1454.92"/>
    </edge>
    <edge id=":node_00x12_0" function="internal">
        <lane id=":node_00x12_0_0" index="0" disallow="tram rail_urban rail rail_electric ship" speed="13.89" length="9.51" shape="-1.26,1555.55 -1.30,1546.04"/>
    </edge>
    <edge id=":node_00x12_1" function="internal">
        <lane id=":node_00x12_1_0" index="0" disallow="tram rail_urban rail rail_electric ship" speed="13.89" length="10.36" shape="-1.26,1555.55 -0.87,1552.74 0.32,1550.73 2.33,1549.53 5.14,1549.13"/>
    </edge>
    <edge id=":node_00x12_2" function="internal">
        <lane id=":node_00x12_2_0" index="0" disallow="tram rail_urban rail rail_electric ship" speed="13.89" length="5.01" shape="5.13,1552.43 3.77,1552.62 2.80,1553.21 2.23,1554.18 2.04,1555.54"/>
    </edge>
    <edge id=":node_00x12_3" function="internal">
        <lane id=":node_00x12_3_0" index="0" disallow="tram rail_urban rail rail_electric ship" speed="13.89" length="10.33" shape="5.13,1552.43 2.33,1552.03 0.32,1550.83 -0.89,1548.83 -1.30,1546.04"/>
    </edge>
    <edge id=":node_00x12_4" function="internal">
        <lane id=":node_00x12_4_0" index="0" disallow="tram rail_urban rail rail_electric ship" speed="13.89" length="5.03" shape="2.00,1546.03 2.20,1547.39 2.79,1548.35 3.77,1548.94 5.14,1549.13"/>
    </edge>
    <edge id=":node_00x12_5" function="internal">
        <lane id=":node_00x12_5_0" index="0" disallow="tram rail_urban rail rail_electric ship" speed="13.89" length="9.50" shape="2.00,1546.03 2.04,1555.54"/>
    </edge>
    <edge id=":node_00x13_0" function="internal">
        <lane id=":node_00x13_0_0" index="0" disallow="tram rail_urban rail rail_electric ship" speed="13.89" length="9.52" shape="-0.73,1656.76 -0.80,1647.24"/>
    </edge>
    <edge id=":node_00x13_1" function="internal">
        <lane id=":node_00x13_1_0" index="0" disallow="tram rail_urban rail rail_electric ship" speed="13.89" length="10.39" shape="-0.73,1656.76 -0.35,1653.93 0.84,1651.92 2.85,1650.71 5.68,1650.32"/>
    </edge>
    <edge id=":node_00x13_2" function="internal">
        <lane id=":node_00x13_2_0" index="0" disallow="tram rail_urban rail rail_electric ship" speed="13.89" length="5.02" shape="5.66,1653.62 4.30,1653.81 3.33,1654.39 2.75,1655.36 2.57,1656.73"/>
    </edge>
    <edge id=":node_00x13_3" function="internal">
        <lane id=":node_00x13_3_0" index="0" disallow="tram rail_urban rail rail_electric ship" speed="13.89" length="10.33" shape="5.66,1653.62 2.85,1653.21 0.83,1652.01 -0.38,1650.02 -0.80,1647.24"/>
    </edge>
    <edge id=":node_00x13_4" function="internal">
        <lane id=":node_00x13_4_0" index="0" disallow="tram rail_urban rail rail_electric ship" speed="13.89" length="5.05" shape="2.50,1647.22 2.71,1648.57 3.30,1649.54 4.29,1650.12 5.68,1650.32"/>
    </edge>
    <edge id=":node_00x13_5" function="internal">
        <lane id=":node_00x13_5_0" index="0" disallow="tram rail_urban rail rail_electric ship" speed="13.89" length="9.51" shape="2.50,1647.22 2.57,1656.73"/>
    </edge>
    <edge id=":node_00x14_0" function="internal">
        <lane id=":node_00x14_0_0" index="0" disallow="tram rail_urban rail rail_electric ship" speed="13.89" length="9.54" shape="0.26,1759.35 0.12,1749.81"/>
    </edge>
    <edge id=":node_00x14_1" function="internal">
        <lane id=":node_00x14_1_0" index="0" disallow="tram rail_urban rail rail_electric ship" speed="13.89" length="10.45" shape="0.26,1759.35 0.61,1756.50 1.80,1754.47 3.81,1753.26 6.66,1752.87"/>
    </edge>
    <edge id=":node_00x14_2" function="internal">
        <lane id=":node_00x14_2_0" index="0" disallow="tram rail_urban rail rail_electric ship" speed="13.89" length="5.03" shape="6.64,1756.17 5.27,1756.36 4.30,1756.94 3.73,1757.92 3.55,1759.29"/>
    </edge>
    <edge id=":node_00x14_3" function="internal">
        <lane id=":node_00x14_3_0" index="0" disallow="tram rail_urban rail rail_electric ship" speed="13.89" length="10.35" shape="6.64,1756.17 3.81,1755.76 1.78,1754.56 0.55,1752.58 0.12,1749.81"/>
    </edge>
    <edge id=":node_00x14_4" function="internal">
        <lane id=":node_00x14_4_0" index="0" disallow="tram rail_urban rail rail_electric ship" speed="13.89" length="5.09" shape="3.42,1749.78 3.64,1751.12 4.25,1752.09 5.26,1752.67 6.66,1752.87"/>
    </edge>
    <edge id=":node_00x14_5" function="internal">
        <lane id=":node_00x14_5_0" index="0" disallow="tram rail_urban rail rail_electric ship" speed="13.89" length="9.52" shape="3.42,1749.78 3.55,1759.29"/>
    </edge>
    <edge id=":node_00x15_0" function="internal">
        <lane id=":node_00x15_0_0" index="0" disallow="tram rail_urban rail rail_electric ship" speed="13.89" length="9.60" shape="2.25,1865.00 1.99,1855.41"/>
    </edge>
    <edge id=":node_00x15_1" function="internal">
        <lane id=":node_00x15_1_0" index="0" disallow="tram rail_urban rail rail_electric ship" speed="13.89" length="10.58" shape="2.25,1865.00 2.56,1862.10 3.73,1860.04 5.76,1858.82 8.66,1858.44"/>
    </edge>
    <edge id=":node_00x15_2" function="internal">
        <lane id=":node_00x15_2_0" index="0" disallow="tram rail_urban rail rail_electric ship" speed="13.89" length="5.06" shape="8.62,1861.74 7.23,1861.92 6.26,1862.50 5.70,1863.49 5.55,1864.88"/>
    </edge>
    <edge id=":node_00x15_3" function="internal">
        <lane id=":node_00x15_3_0" index="0" disallow="tram rail_urban rail rail_electric ship" speed="13.89" length="10.38" shape="8.62,1861.74 5.76,1861.31 3.70,1860.11 2.44,1858.15 1.99,1855.41"/>
    </edge>
    <edge id=":node_00x15_4" function="internal">
        <lane id=":node_00x15_4_0" index="0" disallow="tram rail_urban rail rail_electric ship" speed="13.89" length="5.18" shape="5.29,1855.35 5.52,1856.68 6.16,1857.65 7.20,1858.23 8.66,1858.44"/>
    </edge>
    <edge id=":node_00x15_5" function="internal">
        <lane id=":node_00x15_5_0" index="0" disallow="tram rail_urban rail rail_electric ship" speed="13.89" length="9.54" shape="5.29,1855.35 5.55,1864.88"/>
    </edge>
    <edge id=":node_00x16_0" function="internal">
        <lane id=":node_00x16_0_0" index="0" disallow="tram rail_urban rail rail_electric ship" speed="13.89" length="9.70" shape="6.56,1976.92 6.02,1967.24"/>
    </edge>
    <edge id=":node_00x16_1" function="internal">
        <lane id=":node_00x16_1_0" index="0" disallow="tram rail_urban rail rail_electric ship" speed="13.89" length="10.85" shape="6.56,1976.92 6.78,1973.91 7.92,1971.79 9.98,1970.56 12.98,1970.21"/>
    </edge>
    <edge id=":node_00x16_2" function="internal">
        <lane id=":node_00x16_2_0" index="0" disallow="tram rail_urban rail rail_electric ship" speed="13.89" length="5.13" shape="12.89,1973.51 11.47,1973.67 10.49,1974.26 9.96,1975.26 9.86,1976.68"/>
    </edge>
    <edge id=":node_00x16_3" function="internal">
        <lane id=":node_00x16_3_0" index="0" disallow="tram rail_urban rail rail_electric ship" speed="13.89" length="10.45" shape="12.89,1973.51 9.97,1973.05 7.85,1971.85 6.53,1969.91 6.02,1967.24"/>
    </edge>
    <edge id=":node_00x16_4" function="internal">
        <lane id=":node_00x16_4_0" index="0" disallow="tram rail_urban rail rail_electric ship" speed="13.89" length="5.38" shape="9.32,1967.11 9.59,1968.43 10.29,1969.39 11.42,1969.98 12.98,1970.21"/>
    </edge>
    <edge id=":node_00x16_5" function="internal">
        <lane id=":node_00x16_5_0" index="0" disallow="tram rail_urban rail rail_electric ship" speed="13.89" length="9.58" shape="9.32,1967.11 9.86,1976.68"/>
    </edge>
    <edge id=":node_00x17_0" function="internal">
        <lane id=":node_00x17_0_0" index="0" disallow="tram rail_urban rail rail_electric ship" speed="13.89" length="9.89" shape="15.96,2100.62 14.90,2090.79"/>
    </edge>
    <edge id=":node_00x17_1" function="internal">
        <lane id=":node_00x17_1_0" index="0" disallow="tram rail_urban rail rail_electric ship" speed="13.89" length="11.37" shape="15.96,2100.62 15.99,2097.42 17.07,2095.19 19.22,2093.95 22.41,2093.68"/>
    </edge>
    <edge id=":node_00x17_2" function="internal">
        <lane id=":node_00x17_2_0" index="0" disallow="tram rail_urban rail rail_electric ship" speed="13.89" length="5.25" shape="22.21,2096.98 20.73,2097.10 19.75,2097.67 19.24,2098.70 19.23,2100.18"/>
    </edge>
    <edge id=":node_00x17_3" function="internal">
        <lane id=":node_00x17_3_0" index="0" disallow="tram rail_urban rail rail_electric ship" speed="13.89" length="10.61" shape="22.21,2096.98 19.17,2096.43 16.94,2095.22 15.52,2093.34 14.90,2090.79"/>
    </edge>
    <edge id=":node_00x17_4" function="internal">
        <lane id=":node_00x17_4_0" index="0" disallow="tram rail_urban rail rail_electric ship" speed="13.89" length="5.80" shape="18.20,2090.55 18.54,2091.83 19.36,2092.78 20.65,2093.39 22.41,2093.68"/>
    </edge>
    <edge id=":node_00x17_5" function="internal">
        <lane id=":node_00x17_5_0" index="0" disallow="tram rail_urban rail rail_electric ship" speed="13.89" length="9.69" shape="18.20,2090.55 19.23,2100.18"/>
    </edge>
    <edge id=":node_00x18_0" function="internal">
        <lane id=":node_00x18_0_0" index="0" disallow="tram rail_urban rail rail_electric ship" speed="13.89" length="10.29" shape="35.79,2243.42 33.85,2233.31"/>
    </edge>
    <edge id=":node_00x18_1" function="internal">
        <lane id=":node_00x18_1_0" index="0" disallow="tram rail_urban rail rail_electric ship" speed="13.89" length="12.33" shape="35.79,2243.42 35.48,2239.85 36.47,2237.46 38.75,2236.24 42.33,2236.18"/>
    </edge>
    <edge id=":node_00x18_2" function="internal">
        <lane id=":node_00x18_2_0" index="0" disallow="tram rail_urban rail rail_electric ship" speed="13.89" length="5.49" shape="41.92,2239.46 40.32,2239.48 39.31,2240.03 38.87,2241.09 39.00,2242.68"/>
    </edge>
    <edge id=":node_00x18_3" function="internal">
        <lane id=":node_00x18_3_0" index="0" disallow="tram rail_urban rail rail_electric ship" speed="13.89" length="10.97" shape="41.92,2239.46 38.65,2238.73 36.22,2237.46 34.62,2235.65 33.85,2233.31"/>
    </edge>
    <edge id=":node_00x18_4" function="internal">
        <lane id=":node_00x18_4_0" index="0" disallow="tram rail_urban rail rail_electric ship" speed="13.89" length="6.62" shape="37.12,2232.87 37.58,2234.09 38.60,2235.05 40.19,2235.75 42.33,2236.18"/>
    </edge>
    <edge id=":node_00x18_5" function="internal">
        <lane id=":node_00x18_5_0" index="0" disallow="tram rail_urban rail rail_electric ship" speed="13.89" length="9.99" shape="37.12,2232.87 39.00,2242.68"/>
    </edge>
    <edge id=":node_00x19_0" function="internal">
        <lane id=":node_00x19_0_0" index="0" disallow="tram rail_urban rail rail_electric ship" speed="13.89" length="11.41" shape="74.75,2408.14 71.13,2397.32"/>
    </edge>
    <edge id=":node_00x19_1" function="internal">
        <lane id=":node_00x19_1_0" index="0" disallow="tram rail_urban rail rail_electric ship" speed="13.89" length="14.34" shape="74.75,2408.14 73.71,2403.88 74.46,2401.20 77.02,2400.09 81.38,2400.56"/>
    </edge>
    <edge id=":node_00x19_2" function="internal">
        <lane id=":node_00x19_2_0" index="0" disallow="tram rail_urban rail rail_electric ship" speed="13.89" length="6.02" shape="80.61,2403.77 78.78,2403.57 77.71,2404.04 77.39,2405.16 77.83,2406.95"/>
    </edge>
    <edge id=":node_00x19_3" function="internal">
        <lane id=":node_00x19_3_0" index="0" disallow="tram rail_urban rail rail_electric ship" speed="13.89" length="12.01" shape="80.61,2403.77 76.84,2402.61 74.01,2401.15 72.10,2399.39 71.13,2397.32"/>
    </edge>
    <edge id=":node_00x19_4" function="internal">
        <lane id=":node_00x19_4_0" index="0" disallow="tram rail_urban rail rail_electric ship" speed="13.89" length="8.37" shape="74.35,2396.59 74.99,2397.75 76.38,2398.79 78.51,2399.73 81.38,2400.56"/>
    </edge>
    <edge id=":node_00x19_5" function="internal">
        <lane id=":node_00x19_5_0" index="0" disallow="tram rail_urban rail rail_electric ship" speed="13.89" length="10.95" shape="74.35,2396.59 75.11,2399.61 75.83,2401.85 76.68,2404.05 77.83,2406.95"/>
    </edge>
    <edge id=":node_00x20_0" function="internal">
        <lane id=":node_00x20_0_0" index="0" disallow="tram rail_urban rail rail_electric ship" speed="13.89" length="4.09" shape="137.14,2565.16 136.21,2564.69 135.43,2564.07 134.80,2563.29 134.34,2562.35"/>
    </edge>
    <edge id=":node_00x20_1" function="internal">
        <lane id=":node_00x20_1_0" index="0" disallow="tram rail_urban rail rail_electric ship" speed="13.89" length="1.33" shape="137.41,2561.16 137.57,2561.47 137.77,2561.72 138.02,2561.93 138.33,2562.08"/>
    </edge>
    <edge id=":node_01x00_0" function="internal">
        <lane id=":node_01x00_0_0" index="0" disallow="tram rail_urban rail rail_electric ship" speed="13.89" length="8.37" shape="302.91,74.35 301.75,74.99 300.70,76.38 299.76,78.51 298.94,81.38"/>
    </edge>
    <edge id=":node_01x00_1" function="internal">
        <lane id=":node_01x00_1_0" index="0" disallow="tram rail_urban rail rail_electric ship" speed="13.89" length="10.95" shape="302.91,74.35 299.89,75.11 297.65,75.83 295.44,76.68 292.54,77.83"/>
    </edge>
    <edge id=":node_01x00_2" function="internal">
        <lane id=":node_01x00_2_0" index="0" disallow="tram rail_urban rail rail_electric ship" speed="13.89" length="11.41" shape="291.35,74.75 302.17,71.13"/>
    </edge>
    <edge id=":node_01x00_3" function="internal">
        <lane id=":node_01x00_3_0" index="0" disallow="tram rail_urban rail rail_electric ship" speed="13.89" length="14.34" shape="291.35,74.75 295.61,73.71 298.29,74.46 299.40,77.02 298.94,81.38"/>
    </edge>
    <edge id=":node_01x00_4" function="internal">
        <lane id=":node_01x00_4_0" index="0" disallow="tram rail_urban rail rail_electric ship" speed="13.89" length="6.02" shape="295.73,80.61 295.92,78.78 295.46,77.71 294.33,77.39 292.54,77.83"/>
    </edge>
    <edge id=":node_01x00_5" function="internal">
        <lane id=":node_01x00_5_0" index="0" disallow="tram rail_urban rail rail_electric ship" speed="13.89" length="12.01" shape="295.73,80.61 296.88,76.84 298.34,74.01 300.11,72.10 302.17,71.13"/>
    </edge>
    <edge id=":node_01x01_0" function="internal">
        <lane id=":node_01x01_0_0" index="0" disallow="tram rail_urban rail rail_electric ship" speed="13.89" length="8.89" shape="262.28,256.46 260.02,257.11 258.30,258.30 257.11,260.02 256.46,262.28"/>
    </edge>
    <edge id=":node_01x01_1" function="internal">
        <lane id=":node_01x01_1_0" index="0" disallow="tram rail_urban rail rail_electric ship" speed="13.89" length="12.50" shape="262.28,256.46 250.01,258.85"/>
    </edge>
    <edge id=":node_01x01_2" function="internal">
        <lane id=":node_01x01_2_0" index="0" disallow="tram rail_urban rail rail_electric ship" speed="13.89" length="12.56" shape="262.28,256.46 258.61,256.50 256.28,255.32 255.29,252.90 255.64,249.25"/>
    </edge>
    <edge id=":node_01x01_3" function="internal">
        <lane id=":node_01x01_3_0" index="0" disallow="tram rail_urban rail rail_electric ship" speed="13.89" length="5.55" shape="258.85,250.01 258.69,251.62 259.13,252.69 260.16,253.21 261.78,253.19"/>
    </edge>
    <edge id=":node_01x01_4" function="internal">
        <lane id=":node_01x01_4_0" index="0" disallow="tram rail_urban rail rail_electric ship" speed="13.89" length="12.50" shape="258.85,250.01 256.46,262.28"/>
    </edge>
    <edge id=":node_01x01_5" function="internal">
        <lane id=":node_01x01_5_0" index="0" disallow="tram rail_urban rail rail_electric ship" speed="13.89" length="13.21" shape="258.85,250.01 257.66,253.24 255.79,255.79 253.24,257.66 250.01,258.85"/>
    </edge>
    <edge id=":node_01x01_6" function="internal">
        <lane id=":node_01x01_6_0" index="0" disallow="tram rail_urban rail rail_electric ship" speed="13.89" length="9.55" shape="249.25,255.64 251.58,254.78 253.43,253.43 254.78,251.58 255.64,249.25"/>
    </edge>
    <edge id=":node_01x01_7" function="internal">
        <lane id=":node_01x01_7_0" index="0" disallow="tram rail_urban rail rail_electric ship" speed="13.89" length="12.77" shape="249.25,255.64 261.78,253.19"/>
    </edge>
    <edge id=":node_01x01_8" function="internal">
        <lane id=":node_01x01_8_0" index="0" disallow="tram rail_urban rail rail_electric ship" speed="13.89" length="12.56" shape="249.25,255.64 252.90,255.29 255.32,256.28 256.50,258.61 256.46,262.28"/>
    </edge>
    <edge id=":node_01x01_9" function="internal">
        <lane id=":node_01x01_9_0" index="0" disallow="tram rail_urban rail rail_electric ship" speed="13.89" length="5.55" shape="253.19,261.78 253.21,260.16 252.69,259.13 251.62,258.69 250.01,258.85"/>
    </edge>
    <edge id=":node_01x01_10" function="internal">
        <lane id=":node_01x01_10_0" index="0" disallow="tram rail_urban rail rail_electric ship" speed="13.89" length="12.77" shape="253.19,261.78 255.64,249.25"/>
    </edge>
    <edge id=":node_01x01_11" function="internal">
        <lane id=":node_01x01_11_0" index="0" disallow="tram rail_urban rail rail_electric ship" speed="13.89" length="13.11" shape="253.19,261.78 254.16,258.45 255.91,255.91 258.45,254.16 261.78,253.19"/>
    </edge>
    <edge id=":node_01x02_0" function="internal">
        <lane id=":node_01x02_0_0" index="0" disallow="tram rail_urban rail rail_electric ship" speed="13.89" length="7.16" shape="233.65,439.55 231.77,439.97 230.36,440.87 229.44,442.24 228.99,444.09"/>
    </edge>
    <edge id=":node_01x02_1" function="internal">
        <lane id=":node_01x02_1_0" index="0" disallow="tram rail_urban rail rail_electric ship" speed="13.89" length="11.14" shape="233.65,439.55 222.57,440.72"/>
    </edge>
    <edge id=":node_01x02_2" function="internal">
        <lane id=":node_01x02_2_0" index="0" disallow="tram rail_urban rail rail_electric ship" speed="13.89" length="11.62" shape="233.65,439.55 230.35,439.36 228.16,438.14 227.08,435.88 227.11,432.57"/>
    </edge>
    <edge id=":node_01x02_3" function="internal">
        <lane id=":node_01x02_3_0" index="0" disallow="tram rail_urban rail rail_electric ship" speed="13.89" length="5.31" shape="230.38,433.07 230.36,434.58 230.86,435.62 231.86,436.18 233.36,436.26"/>
    </edge>
    <edge id=":node_01x02_4" function="internal">
        <lane id=":node_01x02_4_0" index="0" disallow="tram rail_urban rail rail_electric ship" speed="13.89" length="11.11" shape="230.38,433.07 228.99,444.09"/>
    </edge>
    <edge id=":node_01x02_5" function="internal">
        <lane id=":node_01x02_5_0" index="0" disallow="tram rail_urban rail rail_electric ship" speed="13.89" length="11.84" shape="230.38,433.07 229.50,436.10 227.91,438.39 225.60,439.93 222.57,440.72"/>
    </edge>
    <edge id=":node_01x02_6" function="internal">
        <lane id=":node_01x02_6_0" index="0" disallow="tram rail_urban rail rail_electric ship" speed="13.89" length="7.53" shape="222.16,437.45 224.08,436.94 225.55,435.96 226.56,434.50 227.11,432.57"/>
    </edge>
    <edge id=":node_01x02_7" function="internal">
        <lane id=":node_01x02_7_0" index="0" disallow="tram rail_urban rail rail_electric ship" speed="13.89" length="11.26" shape="222.16,437.45 233.36,436.26"/>
    </edge>
    <edge id=":node_01x02_8" function="internal">
        <lane id=":node_01x02_8_0" index="0" disallow="tram rail_urban rail rail_electric ship" speed="13.89" length="11.53" shape="222.16,437.45 225.43,437.51 227.66,438.63 228.85,440.83 228.99,444.09"/>
    </edge>
    <edge id=":node_01x02_9" function="internal">
        <lane id=":node_01x02_9_0" index="0" disallow="tram rail_urban rail rail_electric ship" speed="13.89" length="5.29" shape="225.71,443.77 225.64,442.27 225.10,441.27 224.07,440.75 222.57,440.72"/>
    </edge>
    <edge id=":node_01x02_10" function="internal">
        <lane id=":node_01x02_10_0" index="0" disallow="tram rail_urban rail rail_electric ship" speed="13.89" length="11.29" shape="225.71,443.77 227.11,432.57"/>
    </edge>
    <edge id=":node_01x02_11" function="internal">
        <lane id=":node_01x02_11_0" index="0" disallow="tram rail_urban rail rail_electric ship" speed="13.89" length="11.79" shape="225.71,443.77 226.44,440.71 227.96,438.44 230.27,436.96 233.36,436.26"/>
    </edge>
    <edge id=":node_01x03_0" function="internal">
        <lane id=":node_01x03_0_0" index="0" disallow="tram rail_urban rail rail_electric ship" speed="13.89" length="6.17" shape="218.06,593.99 216.40,594.30 215.18,595.04 214.41,596.22 214.08,597.83"/>
    </edge>
    <edge id=":node_01x03_1" function="internal">
        <lane id=":node_01x03_1_0" index="0" disallow="tram rail_urban rail rail_electric ship" speed="13.89" length="10.39" shape="218.06,593.99 207.68,594.54"/>
    </edge>
    <edge id=":node_01x03_2" function="internal">
        <lane id=":node_01x03_2_0" index="0" disallow="tram rail_urban rail rail_electric ship" speed="13.89" length="11.07" shape="218.06,593.99 214.97,593.69 212.87,592.46 211.75,590.29 211.61,587.19"/>
    </edge>
    <edge id=":node_01x03_3" function="internal">
        <lane id=":node_01x03_3_0" index="0" disallow="tram rail_urban rail rail_electric ship" speed="13.89" length="5.18" shape="214.89,587.52 214.96,588.97 215.48,589.98 216.46,590.56 217.91,590.70"/>
    </edge>
    <edge id=":node_01x03_4" function="internal">
        <lane id=":node_01x03_4_0" index="0" disallow="tram rail_urban rail rail_electric ship" speed="13.89" length="10.35" shape="214.89,587.52 214.08,597.83"/>
    </edge>
    <edge id=":node_01x03_5" function="internal">
        <lane id=":node_01x03_5_0" index="0" disallow="tram rail_urban rail rail_electric ship" speed="13.89" length="11.12" shape="214.89,587.52 214.20,590.44 212.76,592.59 210.59,593.95 207.68,594.54"/>
    </edge>
    <edge id=":node_01x03_6" function="internal">
        <lane id=":node_01x03_6_0" index="0" disallow="tram rail_urban rail rail_electric ship" speed="13.89" length="6.39" shape="207.48,591.25 209.15,590.91 210.39,590.12 211.21,588.88 211.61,587.19"/>
    </edge>
    <edge id=":node_01x03_7" function="internal">
        <lane id=":node_01x03_7_0" index="0" disallow="tram rail_urban rail rail_electric ship" speed="13.89" length="10.44" shape="207.48,591.25 217.91,590.70"/>
    </edge>
    <edge id=":node_01x03_8" function="internal">
        <lane id=":node_01x03_8_0" index="0" disallow="tram rail_urban rail rail_electric ship" speed="13.89" length="10.94" shape="207.48,591.25 210.52,591.50 212.64,592.68 213.82,594.79 214.08,597.83"/>
    </edge>
    <edge id=":node_01x03_9" function="internal">
        <lane id=":node_01x03_9_0" index="0" disallow="tram rail_urban rail rail_electric ship" speed="13.89" length="5.15" shape="210.79,597.64 210.67,596.21 210.11,595.22 209.11,594.66 207.68,594.54"/>
    </edge>
    <edge id=":node_01x03_10" function="internal">
        <lane id=":node_01x03_10_0" index="0" disallow="tram rail_urban rail rail_electric ship" speed="13.89" length="10.48" shape="210.79,597.64 211.61,587.19"/>
    </edge>
    <edge id=":node_01x03_11" function="internal">
        <lane id=":node_01x03_11_0" index="0" disallow="tram rail_urban rail rail_electric ship" speed="13.89" length="11.10" shape="210.79,597.64 211.38,594.72 212.76,592.58 214.94,591.25 217.91,590.70"/>
    </edge>
    <edge id=":node_01x04_0" function="internal">
        <lane id=":node_01x04_0_0" index="0" disallow="tram rail_urban rail rail_electric ship" speed="13.89" length="5.61" shape="210.24,723.70 208.72,723.95 207.62,724.61 206.94,725.69 206.67,727.17"/>
    </edge>
    <edge id=":node_01x04_1" function="internal">
        <lane id=":node_01x04_1_0" index="0" disallow="tram rail_urban rail rail_electric ship" speed="13.89" length="9.97" shape="210.24,723.70 200.28,723.96"/>
    </edge>
    <edge id=":node_01x04_2" function="internal">
        <lane id=":node_01x04_2_0" index="0" disallow="tram rail_urban rail rail_electric ship" speed="13.89" length="10.74" shape="210.24,723.70 207.29,723.35 205.23,722.12 204.08,720.02 203.83,717.06"/>
    </edge>
    <edge id=":node_01x04_3" function="internal">
        <lane id=":node_01x04_3_0" index="0" disallow="tram rail_urban rail rail_electric ship" speed="13.89" length="5.10" shape="207.12,717.25 207.24,718.66 207.79,719.65 208.76,720.24 210.17,720.40"/>
    </edge>
    <edge id=":node_01x04_4" function="internal">
        <lane id=":node_01x04_4_0" index="0" disallow="tram rail_urban rail rail_electric ship" speed="13.89" length="9.93" shape="207.12,717.25 206.67,727.17"/>
    </edge>
    <edge id=":node_01x04_5" function="internal">
        <lane id=":node_01x04_5_0" index="0" disallow="tram rail_urban rail rail_electric ship" speed="13.89" length="10.73" shape="207.12,717.25 206.55,720.12 205.22,722.19 203.13,723.47 200.28,723.96"/>
    </edge>
    <edge id=":node_01x04_6" function="internal">
        <lane id=":node_01x04_6_0" index="0" disallow="tram rail_urban rail rail_electric ship" speed="13.89" length="5.74" shape="200.18,720.66 201.70,720.40 202.81,719.71 203.52,718.60 203.83,717.06"/>
    </edge>
    <edge id=":node_01x04_7" function="internal">
        <lane id=":node_01x04_7_0" index="0" disallow="tram rail_urban rail rail_electric ship" speed="13.89" length="9.99" shape="200.18,720.66 210.17,720.40"/>
    </edge>
    <edge id=":node_01x04_8" function="internal">
        <lane id=":node_01x04_8_0" index="0" disallow="tram rail_urban rail rail_electric ship" speed="13.89" length="10.63" shape="200.18,720.66 203.10,721.00 205.16,722.19 206.35,724.25 206.67,727.17"/>
    </edge>
    <edge id=":node_01x04_9" function="internal">
        <lane id=":node_01x04_9_0" index="0" disallow="tram rail_urban rail rail_electric ship" speed="13.89" length="5.07" shape="203.37,727.07 203.22,725.67 202.65,724.69 201.67,724.12 200.28,723.96"/>
    </edge>
    <edge id=":node_01x04_10" function="internal">
        <lane id=":node_01x04_10_0" index="0" disallow="tram rail_urban rail rail_electric ship" speed="13.89" length="10.02" shape="203.37,727.07 203.83,717.06"/>
    </edge>
    <edge id=":node_01x04_11" function="internal">
        <lane id=":node_01x04_11_0" index="0" disallow="tram rail_urban rail rail_electric ship" speed="13.89" length="10.72" shape="203.37,727.07 203.88,724.21 205.18,722.15 207.27,720.88 210.17,720.40"/>
    </edge>
    <edge id=":node_01x05_0" function="internal">
        <lane id=":node_01x05_0_0" index="0" disallow="tram rail_urban rail rail_electric ship" speed="13.89" length="5.33" shape="206.40,838.40 204.95,838.62 203.91,839.24 203.27,840.27 203.04,841.69"/>
    </edge>
    <edge id=":node_01x05_1" function="internal">
        <lane id=":node_01x05_1_0" index="0" disallow="tram rail_urban rail rail_electric ship" speed="13.89" length="9.75" shape="206.40,838.40 196.65,838.53"/>
    </edge>
    <edge id=":node_01x05_2" function="internal">
        <lane id=":node_01x05_2_0" index="0" disallow="tram rail_urban rail rail_electric ship" speed="13.89" length="10.55" shape="206.40,838.40 203.52,838.02 201.49,836.81 200.31,834.75 199.99,831.86"/>
    </edge>
    <edge id=":node_01x05_3" function="internal">
        <lane id=":node_01x05_3_0" index="0" disallow="tram rail_urban rail rail_electric ship" speed="13.89" length="5.05" shape="203.29,831.97 203.44,833.35 204.00,834.34 204.98,834.92 206.36,835.10"/>
    </edge>
    <edge id=":node_01x05_4" function="internal">
        <lane id=":node_01x05_4_0" index="0" disallow="tram rail_urban rail rail_electric ship" speed="13.89" length="9.73" shape="203.29,831.97 203.04,841.69"/>
    </edge>
    <edge id=":node_01x05_5" function="internal">
        <lane id=":node_01x05_5_0" index="0" disallow="tram rail_urban rail rail_electric ship" speed="13.89" length="10.54" shape="203.29,831.97 202.80,834.80 201.52,836.84 199.48,838.08 196.65,838.53"/>
    </edge>
    <edge id=":node_01x05_6" function="internal">
        <lane id=":node_01x05_6_0" index="0" disallow="tram rail_urban rail rail_electric ship" speed="13.89" length="5.39" shape="196.61,835.23 198.05,835.00 199.09,834.36 199.74,833.32 199.99,831.86"/>
    </edge>
    <edge id=":node_01x05_7" function="internal">
        <lane id=":node_01x05_7_0" index="0" disallow="tram rail_urban rail rail_electric ship" speed="13.89" length="9.76" shape="196.61,835.23 206.36,835.10"/>
    </edge>
    <edge id=":node_01x05_8" function="internal">
        <lane id=":node_01x05_8_0" index="0" disallow="tram rail_urban rail rail_electric ship" speed="13.89" length="10.48" shape="196.61,835.23 199.47,835.60 201.49,836.80 202.69,838.83 203.04,841.69"/>
    </edge>
    <edge id=":node_01x05_9" function="internal">
        <lane id=":node_01x05_9_0" index="0" disallow="tram rail_urban rail rail_electric ship" speed="13.89" length="5.04" shape="199.74,841.63 199.57,840.26 199.00,839.28 198.02,838.70 196.65,838.53"/>
    </edge>
    <edge id=":node_01x05_10" function="internal">
        <lane id=":node_01x05_10_0" index="0" disallow="tram rail_urban rail rail_electric ship" speed="13.89" length="9.78" shape="199.74,841.63 199.99,831.86"/>
    </edge>
    <edge id=":node_01x05_11" function="internal">
        <lane id=":node_01x05_11_0" index="0" disallow="tram rail_urban rail rail_electric ship" speed="13.89" length="10.53" shape="199.74,841.63 200.20,838.81 201.46,836.77 203.51,835.54 206.36,835.10"/>
    </edge>
    <edge id=":node_01x06_0" function="internal">
        <lane id=":node_01x06_0_0" index="0" disallow="tram rail_urban rail rail_electric ship" speed="13.89" length="5.20" shape="204.39,945.25 202.98,945.46 201.96,946.07 201.35,947.07 201.13,948.47"/>
    </edge>
    <edge id=":node_01x06_1" function="internal">
        <lane id=":node_01x06_1_0" index="0" disallow="tram rail_urban rail rail_electric ship" speed="13.89" length="9.65" shape="204.39,945.25 194.74,945.32"/>
    </edge>
    <edge id=":node_01x06_2" function="internal">
        <lane id=":node_01x06_2_0" index="0" disallow="tram rail_urban rail rail_electric ship" speed="13.89" length="10.46" shape="204.39,945.25 201.54,944.86 199.52,943.66 198.33,941.62 197.97,938.77"/>
    </edge>
    <edge id=":node_01x06_3" function="internal">
        <lane id=":node_01x06_3_0" index="0" disallow="tram rail_urban rail rail_electric ship" speed="13.89" length="5.03" shape="201.27,938.83 201.44,940.20 202.02,941.18 202.99,941.76 204.36,941.95"/>
    </edge>
    <edge id=":node_01x06_4" function="internal">
        <lane id=":node_01x06_4_0" index="0" disallow="tram rail_urban rail rail_electric ship" speed="13.89" length="9.64" shape="201.27,938.83 201.13,948.47"/>
    </edge>
    <edge id=":node_01x06_5" function="internal">
        <lane id=":node_01x06_5_0" index="0" disallow="tram rail_urban rail rail_electric ship" speed="13.89" length="10.45" shape="201.27,938.83 200.82,941.65 199.58,943.68 197.55,944.90 194.74,945.32"/>
    </edge>
    <edge id=":node_01x06_6" function="internal">
        <lane id=":node_01x06_6_0" index="0" disallow="tram rail_urban rail rail_electric ship" speed="13.89" length="5.22" shape="194.71,942.02 196.12,941.81 197.13,941.20 197.75,940.18 197.97,938.77"/>
    </edge>
    <edge id=":node_01x06_7" function="internal">
        <lane id=":node_01x06_7_0" index="0" disallow="tram rail_urban rail rail_electric ship" speed="13.89" length="9.65" shape="194.71,942.02 204.36,941.95"/>
    </edge>
    <edge id=":node_01x06_8" function="internal">
        <lane id=":node_01x06_8_0" index="0" disallow="tram rail_urban rail rail_electric ship" speed="13.89" length="10.42" shape="194.71,942.02 197.55,942.41 199.56,943.61 200.76,945.63 201.13,948.47"/>
    </edge>
    <edge id=":node_01x06_9" function="internal">
        <lane id=":node_01x06_9_0" index="0" disallow="tram rail_urban rail rail_electric ship" speed="13.89" length="5.02" shape="197.83,948.43 197.65,947.06 197.07,946.09 196.10,945.51 194.74,945.32"/>
    </edge>
    <edge id=":node_01x06_10" function="internal">
        <lane id=":node_01x06_10_0" index="0" disallow="tram rail_urban rail rail_electric ship" speed="13.89" length="9.66" shape="197.83,948.43 197.97,938.77"/>
    </edge>
    <edge id=":node_01x06_11" function="internal">
        <lane id=":node_01x06_11_0" index="0" disallow="tram rail_urban rail rail_electric ship" speed="13.89" length="10.45" shape="197.83,948.43 198.27,945.61 199.50,943.59 201.53,942.37 204.36,941.95"/>
    </edge>
    <edge id=":node_01x07_0" function="internal">
        <lane id=":node_01x07_0_0" index="0" disallow="tram rail_urban rail rail_electric ship" speed="13.89" length="5.14" shape="203.16,1048.36 201.77,1048.56 200.77,1049.16 200.16,1050.16 199.95,1051.54"/>
    </edge>
    <edge id=":node_01x07_1" function="internal">
        <lane id=":node_01x07_1_0" index="0" disallow="tram rail_urban rail rail_electric ship" speed="13.89" length="9.60" shape="203.16,1048.36 193.56,1048.41"/>
    </edge>
    <edge id=":node_01x07_2" function="internal">
        <lane id=":node_01x07_2_0" index="0" disallow="tram rail_urban rail rail_electric ship" speed="13.89" length="10.41" shape="203.16,1048.36 200.33,1047.97 198.31,1046.77 197.12,1044.75 196.75,1041.91"/>
    </edge>
    <edge id=":node_01x07_3" function="internal">
        <lane id=":node_01x07_3_0" index="0" disallow="tram rail_urban rail rail_electric ship" speed="13.89" length="5.02" shape="200.05,1041.95 200.23,1043.32 200.80,1044.29 201.77,1044.87 203.14,1045.06"/>
    </edge>
    <edge id=":node_01x07_4" function="internal">
        <lane id=":node_01x07_4_0" index="0" disallow="tram rail_urban rail rail_electric ship" speed="13.89" length="9.59" shape="200.05,1041.95 199.95,1051.54"/>
    </edge>
    <edge id=":node_01x07_5" function="internal">
        <lane id=":node_01x07_5_0" index="0" disallow="tram rail_urban rail rail_electric ship" speed="13.89" length="10.41" shape="200.05,1041.95 199.61,1044.76 198.39,1046.78 196.37,1047.99 193.56,1048.41"/>
    </edge>
    <edge id=":node_01x07_6" function="internal">
        <lane id=":node_01x07_6_0" index="0" disallow="tram rail_urban rail rail_electric ship" speed="13.89" length="5.14" shape="193.55,1045.11 194.93,1044.90 195.93,1044.30 196.53,1043.30 196.75,1041.91"/>
    </edge>
    <edge id=":node_01x07_7" function="internal">
        <lane id=":node_01x07_7_0" index="0" disallow="tram rail_urban rail rail_electric ship" speed="13.89" length="9.60" shape="193.55,1045.11 203.14,1045.06"/>
    </edge>
    <edge id=":node_01x07_8" function="internal">
        <lane id=":node_01x07_8_0" index="0" disallow="tram rail_urban rail rail_electric ship" speed="13.89" length="10.38" shape="193.55,1045.11 196.37,1045.50 198.38,1046.70 199.57,1048.72 199.95,1051.54"/>
    </edge>
    <edge id=":node_01x07_9" function="internal">
        <lane id=":node_01x07_9_0" index="0" disallow="tram rail_urban rail rail_electric ship" speed="13.89" length="5.01" shape="196.65,1051.51 196.47,1050.15 195.89,1049.18 194.92,1048.60 193.56,1048.41"/>
    </edge>
    <edge id=":node_01x07_10" function="internal">
        <lane id=":node_01x07_10_0" index="0" disallow="tram rail_urban rail rail_electric ship" speed="13.89" length="9.61" shape="196.65,1051.51 196.75,1041.91"/>
    </edge>
    <edge id=":node_01x07_11" function="internal">
        <lane id=":node_01x07_11_0" index="0" disallow="tram rail_urban rail rail_electric ship" speed="13.89" length="10.40" shape="196.65,1051.51 197.08,1048.71 198.30,1046.69 200.32,1045.48 203.14,1045.06"/>
    </edge>
    <edge id=":node_01x08_0" function="internal">
        <lane id=":node_01x08_0_0" index="0" disallow="tram rail_urban rail rail_electric ship" speed="13.89" length="5.10" shape="202.32,1149.84 200.93,1150.05 199.94,1150.64 199.35,1151.62 199.14,1153.00"/>
    </edge>
    <edge id=":node_01x08_1" function="internal">
        <lane id=":node_01x08_1_0" index="0" disallow="tram rail_urban rail rail_electric ship" speed="13.89" length="9.57" shape="202.32,1149.84 192.74,1149.88"/>
    </edge>
    <edge id=":node_01x08_2" function="internal">
        <lane id=":node_01x08_2_0" index="0" disallow="tram rail_urban rail rail_electric ship" speed="13.89" length="10.39" shape="202.32,1149.84 199.49,1149.45 197.48,1148.25 196.29,1146.24 195.90,1143.41"/>
    </edge>
    <edge id=":node_01x08_3" function="internal">
        <lane id=":node_01x08_3_0" index="0" disallow="tram rail_urban rail rail_electric ship" speed="13.89" length="5.02" shape="199.20,1143.44 199.39,1144.80 199.97,1145.77 200.94,1146.35 202.30,1146.54"/>
    </edge>
    <edge id=":node_01x08_4" function="internal">
        <lane id=":node_01x08_4_0" index="0" disallow="tram rail_urban rail rail_electric ship" speed="13.89" length="9.56" shape="199.20,1143.44 199.14,1153.00"/>
    </edge>
    <edge id=":node_01x08_5" function="internal">
        <lane id=":node_01x08_5_0" index="0" disallow="tram rail_urban rail rail_electric ship" speed="13.89" length="10.38" shape="199.20,1143.44 198.78,1146.25 197.56,1148.26 195.55,1149.47 192.74,1149.88"/>
    </edge>
    <edge id=":node_01x08_6" function="internal">
        <lane id=":node_01x08_6_0" index="0" disallow="tram rail_urban rail rail_electric ship" speed="13.89" length="5.10" shape="192.74,1146.58 194.11,1146.38 195.10,1145.78 195.70,1144.79 195.90,1143.41"/>
    </edge>
    <edge id=":node_01x08_7" function="internal">
        <lane id=":node_01x08_7_0" index="0" disallow="tram rail_urban rail rail_electric ship" speed="13.89" length="9.56" shape="192.74,1146.58 202.30,1146.54"/>
    </edge>
    <edge id=":node_01x08_8" function="internal">
        <lane id=":node_01x08_8_0" index="0" disallow="tram rail_urban rail rail_electric ship" speed="13.89" length="10.36" shape="192.74,1146.58 195.55,1146.97 197.56,1148.18 198.75,1150.18 199.14,1153.00"/>
    </edge>
    <edge id=":node_01x08_9" function="internal">
        <lane id=":node_01x08_9_0" index="0" disallow="tram rail_urban rail rail_electric ship" speed="13.89" length="5.01" shape="195.84,1152.98 195.65,1151.62 195.07,1150.65 194.10,1150.07 192.74,1149.88"/>
    </edge>
    <edge id=":node_01x08_10" function="internal">
        <lane id=":node_01x08_10_0" index="0" disallow="tram rail_urban rail rail_electric ship" speed="13.89" length="9.57" shape="195.84,1152.98 195.90,1143.41"/>
    </edge>
    <edge id=":node_01x08_11" function="internal">
        <lane id=":node_01x08_11_0" index="0" disallow="tram rail_urban rail rail_electric ship" speed="13.89" length="10.38" shape="195.84,1152.98 196.26,1150.18 197.47,1148.17 199.49,1146.96 202.30,1146.54"/>
    </edge>
    <edge id=":node_01x09_0" function="internal">
        <lane id=":node_01x09_0_0" index="0" disallow="tram rail_urban rail rail_electric ship" speed="13.89" length="5.05" shape="201.77,1250.71 200.39,1250.91 199.41,1251.50 198.82,1252.47 198.63,1253.84"/>
    </edge>
    <edge id=":node_01x09_1" function="internal">
        <lane id=":node_01x09_1_0" index="0" disallow="tram rail_urban rail rail_electric ship" speed="13.89" length="9.54" shape="201.77,1250.71 192.23,1250.73"/>
    </edge>
    <edge id=":node_01x09_2" function="internal">
        <lane id=":node_01x09_2_0" index="0" disallow="tram rail_urban rail rail_electric ship" speed="13.89" length="10.36" shape="201.77,1250.71 198.95,1250.32 196.94,1249.11 195.75,1247.11 195.36,1244.29"/>
    </edge>
    <edge id=":node_01x09_3" function="internal">
        <lane id=":node_01x09_3_0" index="0" disallow="tram rail_urban rail rail_electric ship" speed="13.89" length="5.01" shape="198.66,1244.31 198.85,1245.67 199.43,1246.64 200.40,1247.22 201.76,1247.41"/>
    </edge>
    <edge id=":node_01x09_4" function="internal">
        <lane id=":node_01x09_4_0" index="0" disallow="tram rail_urban rail rail_electric ship" speed="13.89" length="9.53" shape="198.66,1244.31 198.63,1253.84"/>
    </edge>
    <edge id=":node_01x09_5" function="internal">
        <lane id=":node_01x09_5_0" index="0" disallow="tram rail_urban rail rail_electric ship" speed="13.89" length="10.35" shape="198.66,1244.31 198.25,1247.11 197.03,1249.12 195.03,1250.33 192.23,1250.73"/>
    </edge>
    <edge id=":node_01x09_6" function="internal">
        <lane id=":node_01x09_6_0" index="0" disallow="tram rail_urban rail rail_electric ship" speed="13.89" length="5.06" shape="192.22,1247.43 193.59,1247.23 194.57,1246.64 195.16,1245.66 195.36,1244.29"/>
    </edge>
    <edge id=":node_01x09_7" function="internal">
        <lane id=":node_01x09_7_0" index="0" disallow="tram rail_urban rail rail_electric ship" speed="13.89" length="9.53" shape="192.22,1247.43 201.76,1247.41"/>
    </edge>
    <edge id=":node_01x09_8" function="internal">
        <lane id=":node_01x09_8_0" index="0" disallow="tram rail_urban rail rail_electric ship" speed="13.89" length="10.34" shape="192.22,1247.43 195.03,1247.83 197.03,1249.03 198.23,1251.03 198.63,1253.84"/>
    </edge>
    <edge id=":node_01x09_9" function="internal">
        <lane id=":node_01x09_9_0" index="0" disallow="tram rail_urban rail rail_electric ship" speed="13.89" length="5.00" shape="195.33,1253.83 195.13,1252.47 194.55,1251.50 193.59,1250.92 192.23,1250.73"/>
    </edge>
    <edge id=":node_01x09_10" function="internal">
        <lane id=":node_01x09_10_0" index="0" disallow="tram rail_urban rail rail_electric ship" speed="13.89" length="9.54" shape="195.33,1253.83 195.36,1244.29"/>
    </edge>
    <edge id=":node_01x09_11" function="internal">
        <lane id=":node_01x09_11_0" index="0" disallow="tram rail_urban rail rail_electric ship" speed="13.89" length="10.35" shape="195.33,1253.83 195.73,1251.03 196.94,1249.03 198.95,1247.82 201.76,1247.41"/>
    </edge>
    <edge id=":node_01x10_0" function="internal">
        <lane id=":node_01x10_0_0" index="0" disallow="tram rail_urban rail rail_electric ship" speed="13.89" length="5.01" shape="195.16,1354.51 194.96,1353.15 194.38,1352.17 193.41,1351.59 192.05,1351.40"/>
    </edge>
    <edge id=":node_01x10_1" function="internal">
        <lane id=":node_01x10_1_0" index="0" disallow="tram rail_urban rail rail_electric ship" speed="13.89" length="9.52" shape="195.16,1354.51 195.16,1344.99"/>
    </edge>
    <edge id=":node_01x10_2" function="internal">
        <lane id=":node_01x10_2_0" index="0" disallow="tram rail_urban rail rail_electric ship" speed="13.89" length="10.33" shape="195.16,1354.51 195.55,1351.70 196.75,1349.70 198.75,1348.50 201.55,1348.10"/>
    </edge>
    <edge id=":node_01x10_3" function="internal">
        <lane id=":node_01x10_3_0" index="0" disallow="tram rail_urban rail rail_electric ship" speed="13.89" length="5.00" shape="201.55,1351.40 200.20,1351.59 199.23,1352.17 198.65,1353.14 198.46,1354.50"/>
    </edge>
    <edge id=":node_01x10_4" function="internal">
        <lane id=":node_01x10_4_0" index="0" disallow="tram rail_urban rail rail_electric ship" speed="13.89" length="9.50" shape="201.55,1351.40 192.05,1351.40"/>
    </edge>
    <edge id=":node_01x10_5" function="internal">
        <lane id=":node_01x10_5_0" index="0" disallow="tram rail_urban rail rail_electric ship" speed="13.89" length="10.33" shape="201.55,1351.40 198.75,1351.00 196.75,1349.79 195.55,1347.79 195.16,1344.99"/>
    </edge>
    <edge id=":node_01x10_6" function="internal">
        <lane id=":node_01x10_6_0" index="0" disallow="tram rail_urban rail rail_electric ship" speed="13.89" length="5.00" shape="198.46,1344.99 198.65,1346.35 199.23,1347.32 200.20,1347.90 201.55,1348.10"/>
    </edge>
    <edge id=":node_01x10_7" function="internal">
        <lane id=":node_01x10_7_0" index="0" disallow="tram rail_urban rail rail_electric ship" speed="13.89" length="9.51" shape="198.46,1344.99 198.46,1354.50"/>
    </edge>
    <edge id=":node_01x10_8" function="internal">
        <lane id=":node_01x10_8_0" index="0" disallow="tram rail_urban rail rail_electric ship" speed="13.89" length="10.32" shape="198.46,1344.99 198.05,1347.80 196.85,1349.80 194.85,1351.00 192.05,1351.40"/>
    </edge>
    <edge id=":node_01x10_9" function="internal">
        <lane id=":node_01x10_9_0" index="0" disallow="tram rail_urban rail rail_electric ship" speed="13.89" length="5.01" shape="192.05,1348.10 193.41,1347.90 194.38,1347.32 194.96,1346.35 195.16,1344.99"/>
    </edge>
    <edge id=":node_01x10_10" function="internal">
        <lane id=":node_01x10_10_0" index="0" disallow="tram rail_urban rail rail_electric ship" speed="13.89" length="9.50" shape="192.05,1348.10 201.55,1348.10"/>
    </edge>
    <edge id=":node_01x10_11" function="internal">
        <lane id=":node_01x10_11_0" index="0" disallow="tram rail_urban rail rail_electric ship" speed="13.89" length="10.32" shape="192.05,1348.10 194.85,1348.50 196.85,1349.70 198.05,1351.70 198.46,1354.50"/>
    </edge>
    <edge id=":node_01x11_0" function="internal">
        <lane id=":node_01x11_0_0" index="0" disallow="tram rail_urban rail rail_electric ship" speed="13.89" length="5.06" shape="195.36,1455.20 195.16,1453.83 194.57,1452.85 193.59,1452.26 192.22,1452.06"/>
    </edge>
    <edge id=":node_01x11_1" function="internal">
        <lane id=":node_01x11_1_0" index="0" disallow="tram rail_urban rail rail_electric ship" speed="13.89" length="9.54" shape="195.36,1455.20 195.33,1445.66"/>
    </edge>
    <edge id=":node_01x11_2" function="internal">
        <lane id=":node_01x11_2_0" index="0" disallow="tram rail_urban rail rail_electric ship" speed="13.89" length="10.36" shape="195.36,1455.20 195.75,1452.39 196.94,1450.38 198.95,1449.18 201.77,1448.78"/>
    </edge>
    <edge id=":node_01x11_3" function="internal">
        <lane id=":node_01x11_3_0" index="0" disallow="tram rail_urban rail rail_electric ship" speed="13.89" length="5.01" shape="201.76,1452.08 200.40,1452.27 199.43,1452.85 198.85,1453.83 198.66,1455.19"/>
    </edge>
    <edge id=":node_01x11_4" function="internal">
        <lane id=":node_01x11_4_0" index="0" disallow="tram rail_urban rail rail_electric ship" speed="13.89" length="9.53" shape="201.76,1452.08 192.22,1452.06"/>
    </edge>
    <edge id=":node_01x11_5" function="internal">
        <lane id=":node_01x11_5_0" index="0" disallow="tram rail_urban rail rail_electric ship" speed="13.89" length="10.35" shape="201.76,1452.08 198.95,1451.67 196.94,1450.47 195.73,1448.46 195.33,1445.66"/>
    </edge>
    <edge id=":node_01x11_6" function="internal">
        <lane id=":node_01x11_6_0" index="0" disallow="tram rail_urban rail rail_electric ship" speed="13.89" length="5.05" shape="198.63,1445.66 198.82,1447.02 199.41,1448.00 200.39,1448.58 201.77,1448.78"/>
    </edge>
    <edge id=":node_01x11_7" function="internal">
        <lane id=":node_01x11_7_0" index="0" disallow="tram rail_urban rail rail_electric ship" speed="13.89" length="9.53" shape="198.63,1445.66 198.66,1455.19"/>
    </edge>
    <edge id=":node_01x11_8" function="internal">
        <lane id=":node_01x11_8_0" index="0" disallow="tram rail_urban rail rail_electric ship" speed="13.89" length="10.34" shape="198.63,1445.66 198.23,1448.46 197.03,1450.47 195.03,1451.67 192.22,1452.06"/>
    </edge>
    <edge id=":node_01x11_9" function="internal">
        <lane id=":node_01x11_9_0" index="0" disallow="tram rail_urban rail rail_electric ship" speed="13.89" length="5.00" shape="192.23,1448.76 193.59,1448.57 194.55,1447.99 195.13,1447.02 195.33,1445.66"/>
    </edge>
    <edge id=":node_01x11_10" function="internal">
        <lane id=":node_01x11_10_0" index="0" disallow="tram rail_urban rail rail_electric ship" speed="13.89" length="9.54" shape="192.23,1448.76 201.77,1448.78"/>
    </edge>
    <edge id=":node_01x11_11" function="internal">
        <lane id=":node_01x11_11_0" index="0" disallow="tram rail_urban rail rail_electric ship" speed="13.89" length="10.35" shape="192.23,1448.76 195.03,1449.17 197.03,1450.37 198.25,1452.38 198.66,1455.19"/>
    </edge>
    <edge id=":node_01x12_0" function="internal">
        <lane id=":node_01x12_0_0" index="0" disallow="tram rail_urban rail rail_electric ship" speed="13.89" length="5.10" shape="195.90,1556.08 195.70,1554.70 195.10,1553.71 194.11,1553.12 192.74,1552.91"/>
    </edge>
    <edge id=":node_01x12_1" function="internal">
        <lane id=":node_01x12_1_0" index="0" disallow="tram rail_urban rail rail_electric ship" speed="13.89" length="9.57" shape="195.90,1556.08 195.84,1546.51"/>
    </edge>
    <edge id=":node_01x12_2" function="internal">
        <lane id=":node_01x12_2_0" index="0" disallow="tram rail_urban rail rail_electric ship" speed="13.89" length="10.39" shape="195.90,1556.08 196.29,1553.26 197.48,1551.24 199.49,1550.04 202.32,1549.65"/>
    </edge>
    <edge id=":node_01x12_3" function="internal">
        <lane id=":node_01x12_3_0" index="0" disallow="tram rail_urban rail rail_electric ship" speed="13.89" length="5.02" shape="202.30,1552.95 200.94,1553.14 199.97,1553.72 199.39,1554.69 199.20,1556.06"/>
    </edge>
    <edge id=":node_01x12_4" function="internal">
        <lane id=":node_01x12_4_0" index="0" disallow="tram rail_urban rail rail_electric ship" speed="13.89" length="9.56" shape="202.30,1552.95 192.74,1552.91"/>
    </edge>
    <edge id=":node_01x12_5" function="internal">
        <lane id=":node_01x12_5_0" index="0" disallow="tram rail_urban rail rail_electric ship" speed="13.89" length="10.38" shape="202.30,1552.95 199.49,1552.54 197.47,1551.32 196.26,1549.32 195.84,1546.51"/>
    </edge>
    <edge id=":node_01x12_6" function="internal">
        <lane id=":node_01x12_6_0" index="0" disallow="tram rail_urban rail rail_electric ship" speed="13.89" length="5.10" shape="199.14,1546.49 199.35,1547.87 199.94,1548.85 200.93,1549.45 202.32,1549.65"/>
    </edge>
    <edge id=":node_01x12_7" function="internal">
        <lane id=":node_01x12_7_0" index="0" disallow="tram rail_urban rail rail_electric ship" speed="13.89" length="9.56" shape="199.14,1546.49 199.20,1556.06"/>
    </edge>
    <edge id=":node_01x12_8" function="internal">
        <lane id=":node_01x12_8_0" index="0" disallow="tram rail_urban rail rail_electric ship" speed="13.89" length="10.36" shape="199.14,1546.49 198.75,1549.31 197.56,1551.32 195.55,1552.52 192.74,1552.91"/>
    </edge>
    <edge id=":node_01x12_9" function="internal">
        <lane id=":node_01x12_9_0" index="0" disallow="tram rail_urban rail rail_electric ship" speed="13.89" length="5.01" shape="192.74,1549.61 194.10,1549.42 195.07,1548.84 195.65,1547.87 195.84,1546.51"/>
    </edge>
    <edge id=":node_01x12_10" function="internal">
        <lane id=":node_01x12_10_0" index="0" disallow="tram rail_urban rail rail_electric ship" speed="13.89" length="9.57" shape="192.74,1549.61 202.32,1549.65"/>
    </edge>
    <edge id=":node_01x12_11" function="internal">
        <lane id=":node_01x12_11_0" index="0" disallow="tram rail_urban rail rail_electric ship" speed="13.89" length="10.38" shape="192.74,1549.61 195.55,1550.02 197.56,1551.23 198.78,1553.24 199.20,1556.06"/>
    </edge>
    <edge id=":node_01x13_0" function="internal">
        <lane id=":node_01x13_0_0" index="0" disallow="tram rail_urban rail rail_electric ship" speed="13.89" length="5.14" shape="196.75,1657.58 196.53,1656.19 195.93,1655.19 194.93,1654.59 193.55,1654.39"/>
    </edge>
    <edge id=":node_01x13_1" function="internal">
        <lane id=":node_01x13_1_0" index="0" disallow="tram rail_urban rail rail_electric ship" speed="13.89" length="9.61" shape="196.75,1657.58 196.65,1647.98"/>
    </edge>
    <edge id=":node_01x13_2" function="internal">
        <lane id=":node_01x13_2_0" index="0" disallow="tram rail_urban rail rail_electric ship" speed="13.89" length="10.41" shape="196.75,1657.58 197.12,1654.75 198.31,1652.73 200.33,1651.52 203.16,1651.14"/>
    </edge>
    <edge id=":node_01x13_3" function="internal">
        <lane id=":node_01x13_3_0" index="0" disallow="tram rail_urban rail rail_electric ship" speed="13.89" length="5.02" shape="203.14,1654.44 201.77,1654.62 200.80,1655.20 200.23,1656.18 200.05,1657.55"/>
    </edge>
    <edge id=":node_01x13_4" function="internal">
        <lane id=":node_01x13_4_0" index="0" disallow="tram rail_urban rail rail_electric ship" speed="13.89" length="9.60" shape="203.14,1654.44 193.55,1654.39"/>
    </edge>
    <edge id=":node_01x13_5" function="internal">
        <lane id=":node_01x13_5_0" index="0" disallow="tram rail_urban rail rail_electric ship" speed="13.89" length="10.40" shape="203.14,1654.44 200.32,1654.02 198.30,1652.80 197.08,1650.79 196.65,1647.98"/>
    </edge>
    <edge id=":node_01x13_6" function="internal">
        <lane id=":node_01x13_6_0" index="0" disallow="tram rail_urban rail rail_electric ship" speed="13.89" length="5.14" shape="199.95,1647.95 200.16,1649.34 200.77,1650.33 201.77,1650.93 203.16,1651.14"/>
    </edge>
    <edge id=":node_01x13_7" function="internal">
        <lane id=":node_01x13_7_0" index="0" disallow="tram rail_urban rail rail_electric ship" speed="13.89" length="9.59" shape="199.95,1647.95 200.05,1657.55"/>
    </edge>
    <edge id=":node_01x13_8" function="internal">
        <lane id=":node_01x13_8_0" index="0" disallow="tram rail_urban rail rail_electric ship" speed="13.89" length="10.38" shape="199.95,1647.95 199.57,1650.78 198.38,1652.79 196.37,1653.99 193.55,1654.39"/>
    </edge>
    <edge id=":node_01x13_9" function="internal">
        <lane id=":node_01x13_9_0" index="0" disallow="tram rail_urban rail rail_electric ship" speed="13.89" length="5.01" shape="193.56,1651.09 194.92,1650.90 195.89,1650.32 196.47,1649.34 196.65,1647.98"/>
    </edge>
    <edge id=":node_01x13_10" function="internal">
        <lane id=":node_01x13_10_0" index="0" disallow="tram rail_urban rail rail_electric ship" speed="13.89" length="9.60" shape="193.56,1651.09 203.16,1651.14"/>
    </edge>
    <edge id=":node_01x13_11" function="internal">
        <lane id=":node_01x13_11_0" index="0" disallow="tram rail_urban rail rail_electric ship" speed="13.89" length="10.41" shape="193.56,1651.09 196.37,1651.50 198.39,1652.71 199.61,1654.73 200.05,1657.55"/>
    </edge>
    <edge id=":node_01x14_0" function="internal">
        <lane id=":node_01x14_0_0" index="0" disallow="tram rail_urban rail rail_electric ship" speed="13.89" length="5.22" shape="197.97,1760.72 197.75,1759.31 197.13,1758.30 196.12,1757.68 194.71,1757.47"/>
    </edge>
    <edge id=":node_01x14_1" function="internal">
        <lane id=":node_01x14_1_0" index="0" disallow="tram rail_urban rail rail_electric ship" speed="13.89" length="9.66" shape="197.97,1760.72 197.83,1751.06"/>
    </edge>
    <edge id=":node_01x14_2" function="internal">
        <lane id=":node_01x14_2_0" index="0" disallow="tram rail_urban rail rail_electric ship" speed="13.89" length="10.46" shape="197.97,1760.72 198.33,1757.87 199.52,1755.84 201.54,1754.63 204.39,1754.25"/>
    </edge>
    <edge id=":node_01x14_3" function="internal">
        <lane id=":node_01x14_3_0" index="0" disallow="tram rail_urban rail rail_electric ship" speed="13.89" length="5.03" shape="204.36,1757.55 202.99,1757.73 202.02,1758.31 201.44,1759.29 201.27,1760.66"/>
    </edge>
    <edge id=":node_01x14_4" function="internal">
        <lane id=":node_01x14_4_0" index="0" disallow="tram rail_urban rail rail_electric ship" speed="13.89" length="9.65" shape="204.36,1757.55 194.71,1757.47"/>
    </edge>
    <edge id=":node_01x14_5" function="internal">
        <lane id=":node_01x14_5_0" index="0" disallow="tram rail_urban rail rail_electric ship" speed="13.89" length="10.45" shape="204.36,1757.55 201.53,1757.12 199.50,1755.90 198.27,1753.88 197.83,1751.06"/>
    </edge>
    <edge id=":node_01x14_6" function="internal">
        <lane id=":node_01x14_6_0" index="0" disallow="tram rail_urban rail rail_electric ship" speed="13.89" length="5.20" shape="201.13,1751.03 201.35,1752.42 201.96,1753.43 202.98,1754.03 204.39,1754.25"/>
    </edge>
    <edge id=":node_01x14_7" function="internal">
        <lane id=":node_01x14_7_0" index="0" disallow="tram rail_urban rail rail_electric ship" speed="13.89" length="9.64" shape="201.13,1751.03 201.27,1760.66"/>
    </edge>
    <edge id=":node_01x14_8" function="internal">
        <lane id=":node_01x14_8_0" index="0" disallow="tram rail_urban rail rail_electric ship" speed="13.89" length="10.42" shape="201.13,1751.03 200.76,1753.86 199.56,1755.88 197.55,1757.09 194.71,1757.47"/>
    </edge>
    <edge id=":node_01x14_9" function="internal">
        <lane id=":node_01x14_9_0" index="0" disallow="tram rail_urban rail rail_electric ship" speed="13.89" length="5.02" shape="194.74,1754.17 196.10,1753.99 197.07,1753.41 197.65,1752.43 197.83,1751.06"/>
    </edge>
    <edge id=":node_01x14_10" function="internal">
        <lane id=":node_01x14_10_0" index="0" disallow="tram rail_urban rail rail_electric ship" speed="13.89" length="9.65" shape="194.74,1754.17 204.39,1754.25"/>
    </edge>
    <edge id=":node_01x14_11" function="internal">
        <lane id=":node_01x14_11_0" index="0" disallow="tram rail_urban rail rail_electric ship" speed="13.89" length="10.45" shape="194.74,1754.17 197.55,1754.59 199.58,1755.82 200.82,1757.84 201.27,1760.66"/>
    </edge>
    <edge id=":node_01x15_0" function="internal">
        <lane id=":node_01x15_0_0" index="0" disallow="tram rail_urban rail rail_electric ship" speed="13.89" length="5.39" shape="199.99,1867.63 199.74,1866.18 199.09,1865.13 198.05,1864.49 196.61,1864.27"/>
    </edge>
    <edge id=":node_01x15_1" function="internal">
        <lane id=":node_01x15_1_0" index="0" disallow="tram rail_urban rail rail_electric ship" speed="13.89" length="9.78" shape="199.99,1867.63 199.74,1857.86"/>
    </edge>
    <edge id=":node_01x15_2" function="internal">
        <lane id=":node_01x15_2_0" index="0" disallow="tram rail_urban rail rail_electric ship" speed="13.89" length="10.55" shape="199.99,1867.63 200.31,1864.74 201.49,1862.69 203.52,1861.47 206.40,1861.09"/>
    </edge>
    <edge id=":node_01x15_3" function="internal">
        <lane id=":node_01x15_3_0" index="0" disallow="tram rail_urban rail rail_electric ship" speed="13.89" length="5.05" shape="206.36,1864.39 204.98,1864.57 204.00,1865.16 203.44,1866.14 203.29,1867.53"/>
    </edge>
    <edge id=":node_01x15_4" function="internal">
        <lane id=":node_01x15_4_0" index="0" disallow="tram rail_urban rail rail_electric ship" speed="13.89" length="9.76" shape="206.36,1864.39 196.61,1864.27"/>
    </edge>
    <edge id=":node_01x15_5" function="internal">
        <lane id=":node_01x15_5_0" index="0" disallow="tram rail_urban rail rail_electric ship" speed="13.89" length="10.53" shape="206.36,1864.39 203.51,1863.95 201.46,1862.72 200.20,1860.69 199.74,1857.86"/>
    </edge>
    <edge id=":node_01x15_6" function="internal">
        <lane id=":node_01x15_6_0" index="0" disallow="tram rail_urban rail rail_electric ship" speed="13.89" length="5.33" shape="203.04,1857.80 203.27,1859.22 203.91,1860.25 204.95,1860.87 206.40,1861.09"/>
    </edge>
    <edge id=":node_01x15_7" function="internal">
        <lane id=":node_01x15_7_0" index="0" disallow="tram rail_urban rail rail_electric ship" speed="13.89" length="9.73" shape="203.04,1857.80 203.29,1867.53"/>
    </edge>
    <edge id=":node_01x15_8" function="internal">
        <lane id=":node_01x15_8_0" index="0" disallow="tram rail_urban rail rail_electric ship" speed="13.89" length="10.48" shape="203.04,1857.80 202.69,1860.66 201.49,1862.69 199.47,1863.90 196.61,1864.27"/>
    </edge>
    <edge id=":node_01x15_9" function="internal">
        <lane id=":node_01x15_9_0" index="0" disallow="tram rail_urban rail rail_electric ship" speed="13.89" length="5.04" shape="196.65,1860.97 198.02,1860.79 199.00,1860.21 199.57,1859.23 199.74,1857.86"/>
    </edge>
    <edge id=":node_01x15_10" function="internal">
        <lane id=":node_01x15_10_0" index="0" disallow="tram rail_urban rail rail_electric ship" speed="13.89" length="9.75" shape="196.65,1860.97 206.40,1861.09"/>
    </edge>
    <edge id=":node_01x15_11" function="internal">
        <lane id=":node_01x15_11_0" index="0" disallow="tram rail_urban rail rail_electric ship" speed="13.89" length="10.54" shape="196.65,1860.97 199.48,1861.41 201.52,1862.65 202.80,1864.69 203.29,1867.53"/>
    </edge>
    <edge id=":node_01x16_0" function="internal">
        <lane id=":node_01x16_0_0" index="0" disallow="tram rail_urban rail rail_electric ship" speed="13.89" length="5.74" shape="203.83,1982.44 203.52,1980.90 202.81,1979.78 201.70,1979.09 200.18,1978.83"/>
    </edge>
    <edge id=":node_01x16_1" function="internal">
        <lane id=":node_01x16_1_0" index="0" disallow="tram rail_urban rail rail_electric ship" speed="13.89" length="10.02" shape="203.83,1982.44 203.37,1972.43"/>
    </edge>
    <edge id=":node_01x16_2" function="internal">
[...]
    <connection from=":node_19x13_7" to="yedge_13x38" fromLane="0" toLane="0" dir="s" state="M"/>
    <connection from=":node_19x13_8" to="xedge_19x26" fromLane="0" toLane="0" dir="s" state="M"/>
    <connection from=":node_19x13_9" to="yedge_13x37" fromLane="0" toLane="0" dir="s" state="M"/>
    <connection from=":node_19x13_10" to="xedge_19x25" fromLane="0" toLane="0" dir="s" state="M"/>
    <connection from=":node_19x13_11" to="yedge_13x38" fromLane="0" toLane="0" dir="s" state="M"/>
    <connection from=":node_19x14_0" to="xedge_19x28" fromLane="0" toLane="0" dir="s" state="M"/>
    <connection from=":node_19x14_1" to="yedge_14x37" fromLane="0" toLane="0" dir="s" state="M"/>
    <connection from=":node_19x14_2" to="xedge_19x27" fromLane="0" toLane="0" dir="s" state="M"/>
    <connection from=":node_19x14_3" to="yedge_14x38" fromLane="0" toLane="0" dir="s" state="M"/>
    <connection from=":node_19x14_4" to="xedge_19x28" fromLane="0" toLane="0" dir="s" state="M"/>
    <connection from=":node_19x14_5" to="yedge_14x37" fromLane="0" toLane="0" dir="s" state="M"/>
    <connection from=":node_19x14_6" to="xedge_19x27" fromLane="0" toLane="0" dir="s" state="M"/>
    <connection from=":node_19x14_7" to="yedge_14x38" fromLane="0" toLane="0" dir="s" state="M"/>
    <connection from=":node_19x14_8" to="xedge_19x28" fromLane="0" toLane="0" dir="s" state="M"/>
    <connection from=":node_19x14_9" to="yedge_14x37" fromLane="0" toLane="0" dir="s" state="M"/>
    <connection from=":node_19x14_10" to="xedge_19x27" fromLane="0" toLane="0" dir="s" state="M"/>
    <connection from=":node_19x14_11" to="yedge_14x38" fromLane="0" toLane="0" dir="s" state="M"/>
    <connection from=":node_19x15_0" to="xedge_19x30" fromLane="0" toLane="0" dir="s" state="M"/>
    <connection from=":node_19x15_1" to="yedge_15x37" fromLane="0" toLane="0" dir="s" state="M"/>
    <connection from=":node_19x15_2" to="xedge_19x29" fromLane="0" toLane="0" dir="s" state="M"/>
    <connection from=":node_19x15_3" to="yedge_15x38" fromLane="0" toLane="0" dir="s" state="M"/>
    <connection from=":node_19x15_4" to="xedge_19x30" fromLane="0" toLane="0" dir="s" state="M"/>
    <connection from=":node_19x15_5" to="yedge_15x37" fromLane="0" toLane="0" dir="s" state="M"/>
    <connection from=":node_19x15_6" to="xedge_19x29" fromLane="0" toLane="0" dir="s" state="M"/>
    <connection from=":node_19x15_7" to="yedge_15x38" fromLane="0" toLane="0" dir="s" state="M"/>
    <connection from=":node_19x15_8" to="xedge_19x30" fromLane="0" toLane="0" dir="s" state="M"/>
    <connection from=":node_19x15_9" to="yedge_15x37" fromLane="0" toLane="0" dir="s" state="M"/>
    <connection from=":node_19x15_10" to="xedge_19x29" fromLane="0" toLane="0" dir="s" state="M"/>
    <connection from=":node_19x15_11" to="yedge_15x38" fromLane="0" toLane="0" dir="s" state="M"/>
    <connection from=":node_19x16_0" to="xedge_19x32" fromLane="0" toLane="0" dir="s" state="M"/>
    <connection from=":node_19x16_1" to="yedge_16x37" fromLane="0" toLane="0" dir="s" state="M"/>
    <connection from=":node_19x16_2" to="xedge_19x31" fromLane="0" toLane="0" dir="s" state="M"/>
    <connection from=":node_19x16_3" to="yedge_16x38" fromLane="0" toLane="0" dir="s" state="M"/>
    <connection from=":node_19x16_4" to="xedge_19x32" fromLane="0" toLane="0" dir="s" state="M"/>
    <connection from=":node_19x16_5" to="yedge_16x37" fromLane="0" toLane="0" dir="s" state="M"/>
    <connection from=":node_19x16_6" to="xedge_19x31" fromLane="0" toLane="0" dir="s" state="M"/>
    <connection from=":node_19x16_7" to="yedge_16x38" fromLane="0" toLane="0" dir="s" state="M"/>
    <connection from=":node_19x16_8" to="xedge_19x32" fromLane="0" toLane="0" dir="s" state="M"/>
    <connection from=":node_19x16_9" to="yedge_16x37" fromLane="0" toLane="0" dir="s" state="M"/>
    <connection from=":node_19x16_10" to="xedge_19x31" fromLane="0" toLane="0" dir="s" state="M"/>
    <connection from=":node_19x16_11" to="yedge_16x38" fromLane="0" toLane="0" dir="s" state="M"/>
    <connection from=":node_19x17_0" to="xedge_19x34" fromLane="0" toLane="0" dir="s" state="M"/>
    <connection from=":node_19x17_1" to="yedge_17x37" fromLane="0" toLane="0" dir="s" state="M"/>
    <connection from=":node_19x17_2" to="xedge_19x33" fromLane="0" toLane="0" dir="s" state="M"/>
    <connection from=":node_19x17_3" to="yedge_17x38" fromLane="0" toLane="0" dir="s" state="M"/>
    <connection from=":node_19x17_4" to="xedge_19x34" fromLane="0" toLane="0" dir="s" state="M"/>
    <connection from=":node_19x17_5" to="yedge_17x37" fromLane="0" toLane="0" dir="s" state="M"/>
    <connection from=":node_19x17_6" to="xedge_19x33" fromLane="0" toLane="0" dir="s" state="M"/>
    <connection from=":node_19x17_7" to="yedge_17x38" fromLane="0" toLane="0" dir="s" state="M"/>
    <connection from=":node_19x17_8" to="xedge_19x34" fromLane="0" toLane="0" dir="s" state="M"/>
    <connection from=":node_19x17_9" to="yedge_17x37" fromLane="0" toLane="0" dir="s" state="M"/>
    <connection from=":node_19x17_10" to="xedge_19x33" fromLane="0" toLane="0" dir="s" state="M"/>
    <connection from=":node_19x17_11" to="yedge_17x38" fromLane="0" toLane="0" dir="s" state="M"/>
    <connection from=":node_19x18_0" to="xedge_19x36" fromLane="0" toLane="0" dir="s" state="M"/>
    <connection from=":node_19x18_1" to="yedge_18x37" fromLane="0" toLane="0" dir="s" state="M"/>
    <connection from=":node_19x18_2" to="xedge_19x35" fromLane="0" toLane="0" dir="s" state="M"/>
    <connection from=":node_19x18_3" to="yedge_18x38" fromLane="0" toLane="0" dir="s" state="M"/>
    <connection from=":node_19x18_4" to="xedge_19x36" fromLane="0" toLane="0" dir="s" state="M"/>
    <connection from=":node_19x18_5" to="yedge_18x37" fromLane="0" toLane="0" dir="s" state="M"/>
    <connection from=":node_19x18_6" to="xedge_19x35" fromLane="0" toLane="0" dir="s" state="M"/>
    <connection from=":node_19x18_7" to="yedge_18x38" fromLane="0" toLane="0" dir="s" state="M"/>
    <connection from=":node_19x18_8" to="xedge_19x36" fromLane="0" toLane="0" dir="s" state="M"/>
    <connection from=":node_19x18_9" to="yedge_18x37" fromLane="0" toLane="0" dir="s" state="M"/>
    <connection from=":node_19x18_10" to="xedge_19x35" fromLane="0" toLane="0" dir="s" state="M"/>
    <connection from=":node_19x18_11" to="yedge_18x38" fromLane="0" toLane="0" dir="s" state="M"/>
    <connection from=":node_19x19_0" to="xedge_19x38" fromLane="0" toLane="0" dir="s" state="M"/>
    <connection from=":node_19x19_1" to="yedge_19x37" fromLane="0" toLane="0" dir="s" state="M"/>
    <connection from=":node_19x19_2" to="xedge_19x37" fromLane="0" toLane="0" dir="s" state="M"/>
    <connection from=":node_19x19_3" to="yedge_19x38" fromLane="0" toLane="0" dir="s" state="M"/>
    <connection from=":node_19x19_4" to="xedge_19x38" fromLane="0" toLane="0" dir="s" state="M"/>
    <connection from=":node_19x19_5" to="yedge_19x37" fromLane="0" toLane="0" dir="s" state="M"/>
    <connection from=":node_19x19_6" to="xedge_19x37" fromLane="0" toLane="0" dir="s" state="M"/>
    <connection from=":node_19x19_7" to="yedge_19x38" fromLane="0" toLane="0" dir="s" state="M"/>
    <connection from=":node_19x19_8" to="xedge_19x38" fromLane="0" toLane="0" dir="s" state="M"/>
    <connection from=":node_19x19_9" to="yedge_19x37" fromLane="0" toLane="0" dir="s" state="M"/>
    <connection from=":node_19x19_10" to="xedge_19x37" fromLane="0" toLane="0" dir="s" state="M"/>
    <connection from=":node_19x19_11" to="yedge_19x38" fromLane="0" toLane="0" dir="s" state="M"/>
    <connection from=":node_19x20_0" to="yedge_20x37" fromLane="0" toLane="0" dir="s" state="M"/>
    <connection from=":node_19x20_1" to="xedge_19x39" fromLane="0" toLane="0" dir="s" state="M"/>
    <connection from=":node_19x20_2" to="yedge_20x38" fromLane="0" toLane="0" dir="s" state="M"/>
    <connection from=":node_19x20_3" to="yedge_20x37" fromLane="0" toLane="0" dir="s" state="M"/>
    <connection from=":node_19x20_4" to="xedge_19x39" fromLane="0" toLane="0" dir="s" state="M"/>
    <connection from=":node_19x20_5" to="yedge_20x38" fromLane="0" toLane="0" dir="s" state="M"/>
    <connection from=":node_20x00_0" to="yedge_00x39" fromLane="0" toLane="0" dir="s" state="M"/>
    <connection from=":node_20x00_1" to="xedge_20x00" fromLane="0" toLane="0" dir="s" state="M"/>
    <connection from=":node_20x01_0" to="yedge_01x39" fromLane="0" toLane="0" dir="s" state="M"/>
    <connection from=":node_20x01_1" to="xedge_20x01" fromLane="0" toLane="0" dir="s" state="M"/>
    <connection from=":node_20x01_2" to="xedge_20x02" fromLane="0" toLane="0" dir="s" state="M"/>
    <connection from=":node_20x01_3" to="yedge_01x39" fromLane="0" toLane="0" dir="s" state="M"/>
    <connection from=":node_20x01_4" to="xedge_20x01" fromLane="0" toLane="0" dir="s" state="M"/>
    <connection from=":node_20x01_5" to="xedge_20x02" fromLane="0" toLane="0" dir="s" state="M"/>
    <connection from=":node_20x02_0" to="yedge_02x39" fromLane="0" toLane="0" dir="s" state="M"/>
    <connection from=":node_20x02_1" to="xedge_20x03" fromLane="0" toLane="0" dir="s" state="M"/>
    <connection from=":node_20x02_2" to="xedge_20x04" fromLane="0" toLane="0" dir="s" state="M"/>
    <connection from=":node_20x02_3" to="yedge_02x39" fromLane="0" toLane="0" dir="s" state="M"/>
    <connection from=":node_20x02_4" to="xedge_20x03" fromLane="0" toLane="0" dir="s" state="M"/>
    <connection from=":node_20x02_5" to="xedge_20x04" fromLane="0" toLane="0" dir="s" state="M"/>
    <connection from=":node_20x03_0" to="yedge_03x39" fromLane="0" toLane="0" dir="s" state="M"/>
    <connection from=":node_20x03_1" to="xedge_20x05" fromLane="0" toLane="0" dir="s" state="M"/>
    <connection from=":node_20x03_2" to="xedge_20x06" fromLane="0" toLane="0" dir="s" state="M"/>
    <connection from=":node_20x03_3" to="yedge_03x39" fromLane="0" toLane="0" dir="s" state="M"/>
    <connection from=":node_20x03_4" to="xedge_20x05" fromLane="0" toLane="0" dir="s" state="M"/>
    <connection from=":node_20x03_5" to="xedge_20x06" fromLane="0" toLane="0" dir="s" state="M"/>
    <connection from=":node_20x04_0" to="yedge_04x39" fromLane="0" toLane="0" dir="s" state="M"/>
    <connection from=":node_20x04_1" to="xedge_20x07" fromLane="0" toLane="0" dir="s" state="M"/>
    <connection from=":node_20x04_2" to="xedge_20x08" fromLane="0" toLane="0" dir="s" state="M"/>
    <connection from=":node_20x04_3" to="yedge_04x39" fromLane="0" toLane="0" dir="s" state="M"/>
    <connection from=":node_20x04_4" to="xedge_20x07" fromLane="0" toLane="0" dir="s" state="M"/>
    <connection from=":node_20x04_5" to="xedge_20x08" fromLane="0" toLane="0" dir="s" state="M"/>
    <connection from=":node_20x05_0" to="yedge_05x39" fromLane="0" toLane="0" dir="s" state="M"/>
    <connection from=":node_20x05_1" to="xedge_20x09" fromLane="0" toLane="0" dir="s" state="M"/>
    <connection from=":node_20x05_2" to="xedge_20x10" fromLane="0" toLane="0" dir="s" state="M"/>
    <connection from=":node_20x05_3" to="yedge_05x39" fromLane="0" toLane="0" dir="s" state="M"/>
    <connection from=":node_20x05_4" to="xedge_20x09" fromLane="0" toLane="0" dir="s" state="M"/>
    <connection from=":node_20x05_5" to="xedge_20x10" fromLane="0" toLane="0" dir="s" state="M"/>
    <connection from=":node_20x06_0" to="yedge_06x39" fromLane="0" toLane="0" dir="s" state="M"/>
    <connection from=":node_20x06_1" to="xedge_20x11" fromLane="0" toLane="0" dir="s" state="M"/>
    <connection from=":node_20x06_2" to="xedge_20x12" fromLane="0" toLane="0" dir="s" state="M"/>
    <connection from=":node_20x06_3" to="yedge_06x39" fromLane="0" toLane="0" dir="s" state="M"/>
    <connection from=":node_20x06_4" to="xedge_20x11" fromLane="0" toLane="0" dir="s" state="M"/>
    <connection from=":node_20x06_5" to="xedge_20x12" fromLane="0" toLane="0" dir="s" state="M"/>
    <connection from=":node_20x07_0" to="yedge_07x39" fromLane="0" toLane="0" dir="s" state="M"/>
    <connection from=":node_20x07_1" to="xedge_20x13" fromLane="0" toLane="0" dir="s" state="M"/>
    <connection from=":node_20x07_2" to="xedge_20x14" fromLane="0" toLane="0" dir="s" state="M"/>
    <connection from=":node_20x07_3" to="yedge_07x39" fromLane="0" toLane="0" dir="s" state="M"/>
    <connection from=":node_20x07_4" to="xedge_20x13" fromLane="0" toLane="0" dir="s" state="M"/>
    <connection from=":node_20x07_5" to="xedge_20x14" fromLane="0" toLane="0" dir="s" state="M"/>
    <connection from=":node_20x08_0" to="yedge_08x39" fromLane="0" toLane="0" dir="s" state="M"/>
    <connection from=":node_20x08_1" to="xedge_20x15" fromLane="0" toLane="0" dir="s" state="M"/>
    <connection from=":node_20x08_2" to="xedge_20x16" fromLane="0" toLane="0" dir="s" state="M"/>
    <connection from=":node_20x08_3" to="yedge_08x39" fromLane="0" toLane="0" dir="s" state="M"/>
    <connection from=":node_20x08_4" to="xedge_20x15" fromLane="0" toLane="0" dir="s" state="M"/>
    <connection from=":node_20x08_5" to="xedge_20x16" fromLane="0" toLane="0" dir="s" state="M"/>
    <connection from=":node_20x09_0" to="yedge_09x39" fromLane="0" toLane="0" dir="s" state="M"/>
    <connection from=":node_20x09_1" to="xedge_20x17" fromLane="0" toLane="0" dir="s" state="M"/>
    <connection from=":node_20x09_2" to="xedge_20x18" fromLane="0" toLane="0" dir="s" state="M"/>
    <connection from=":node_20x09_3" to="yedge_09x39" fromLane="0" toLane="0" dir="s" state="M"/>
    <connection from=":node_20x09_4" to="xedge_20x17" fromLane="0" toLane="0" dir="s" state="M"/>
    <connection from=":node_20x09_5" to="xedge_20x18" fromLane="0" toLane="0" dir="s" state="M"/>
    <connection from=":node_20x10_0" to="yedge_10x39" fromLane="0" toLane="0" dir="s" state="M"/>
    <connection from=":node_20x10_1" to="xedge_20x19" fromLane="0" toLane="0" dir="s" state="M"/>
    <connection from=":node_20x10_2" to="xedge_20x20" fromLane="0" toLane="0" dir="s" state="M"/>
    <connection from=":node_20x10_3" to="yedge_10x39" fromLane="0" toLane="0" dir="s" state="M"/>
    <connection from=":node_20x10_4" to="xedge_20x19" fromLane="0" toLane="0" dir="s" state="M"/>
    <connection from=":node_20x10_5" to="xedge_20x20" fromLane="0" toLane="0" dir="s" state="M"/>
    <connection from=":node_20x11_0" to="xedge_20x22" fromLane="0" toLane="0" dir="s" state="M"/>
    <connection from=":node_20x11_1" to="yedge_11x39" fromLane="0" toLane="0" dir="s" state="M"/>
    <connection from=":node_20x11_2" to="xedge_20x21" fromLane="0" toLane="0" dir="s" state="M"/>
    <connection from=":node_20x11_3" to="xedge_20x22" fromLane="0" toLane="0" dir="s" state="M"/>
    <connection from=":node_20x11_4" to="yedge_11x39" fromLane="0" toLane="0" dir="s" state="M"/>
    <connection from=":node_20x11_5" to="xedge_20x21" fromLane="0" toLane="0" dir="s" state="M"/>
    <connection from=":node_20x12_0" to="xedge_20x24" fromLane="0" toLane="0" dir="s" state="M"/>
    <connection from=":node_20x12_1" to="yedge_12x39" fromLane="0" toLane="0" dir="s" state="M"/>
    <connection from=":node_20x12_2" to="xedge_20x23" fromLane="0" toLane="0" dir="s" state="M"/>
    <connection from=":node_20x12_3" to="xedge_20x24" fromLane="0" toLane="0" dir="s" state="M"/>
    <connection from=":node_20x12_4" to="yedge_12x39" fromLane="0" toLane="0" dir="s" state="M"/>
    <connection from=":node_20x12_5" to="xedge_20x23" fromLane="0" toLane="0" dir="s" state="M"/>
    <connection from=":node_20x13_0" to="xedge_20x26" fromLane="0" toLane="0" dir="s" state="M"/>
    <connection from=":node_20x13_1" to="yedge_13x39" fromLane="0" toLane="0" dir="s" state="M"/>
    <connection from=":node_20x13_2" to="xedge_20x25" fromLane="0" toLane="0" dir="s" state="M"/>
    <connection from=":node_20x13_3" to="xedge_20x26" fromLane="0" toLane="0" dir="s" state="M"/>
    <connection from=":node_20x13_4" to="yedge_13x39" fromLane="0" toLane="0" dir="s" state="M"/>
    <connection from=":node_20x13_5" to="xedge_20x25" fromLane="0" toLane="0" dir="s" state="M"/>
    <connection from=":node_20x14_0" to="xedge_20x28" fromLane="0" toLane="0" dir="s" state="M"/>
    <connection from=":node_20x14_1" to="yedge_14x39" fromLane="0" toLane="0" dir="s" state="M"/>
    <connection from=":node_20x14_2" to="xedge_20x27" fromLane="0" toLane="0" dir="s" state="M"/>
    <connection from=":node_20x14_3" to="xedge_20x28" fromLane="0" toLane="0" dir="s" state="M"/>
    <connection from=":node_20x14_4" to="yedge_14x39" fromLane="0" toLane="0" dir="s" state="M"/>
    <connection from=":node_20x14_5" to="xedge_20x27" fromLane="0" toLane="0" dir="s" state="M"/>
    <connection from=":node_20x15_0" to="xedge_20x30" fromLane="0" toLane="0" dir="s" state="M"/>
    <connection from=":node_20x15_1" to="yedge_15x39" fromLane="0" toLane="0" dir="s" state="M"/>
    <connection from=":node_20x15_2" to="xedge_20x29" fromLane="0" toLane="0" dir="s" state="M"/>
    <connection from=":node_20x15_3" to="xedge_20x30" fromLane="0" toLane="0" dir="s" state="M"/>
    <connection from=":node_20x15_4" to="yedge_15x39" fromLane="0" toLane="0" dir="s" state="M"/>
    <connection from=":node_20x15_5" to="xedge_20x29" fromLane="0" toLane="0" dir="s" state="M"/>
    <connection from=":node_20x16_0" to="xedge_20x32" fromLane="0" toLane="0" dir="s" state="M"/>
    <connection from=":node_20x16_1" to="yedge_16x39" fromLane="0" toLane="0" dir="s" state="M"/>
    <connection from=":node_20x16_2" to="xedge_20x31" fromLane="0" toLane="0" dir="s" state="M"/>
    <connection from=":node_20x16_3" to="xedge_20x32" fromLane="0" toLane="0" dir="s" state="M"/>
    <connection from=":node_20x16_4" to="yedge_16x39" fromLane="0" toLane="0" dir="s" state="M"/>
    <connection from=":node_20x16_5" to="xedge_20x31" fromLane="0" toLane="0" dir="s" state="M"/>
    <connection from=":node_20x17_0" to="xedge_20x34" fromLane="0" toLane="0" dir="s" state="M"/>
    <connection from=":node_20x17_1" to="yedge_17x39" fromLane="0" toLane="0" dir="s" state="M"/>
    <connection from=":node_20x17_2" to="xedge_20x33" fromLane="0" toLane="0" dir="s" state="M"/>
    <connection from=":node_20x17_3" to="xedge_20x34" fromLane="0" toLane="0" dir="s" state="M"/>
    <connection from=":node_20x17_4" to="yedge_17x39" fromLane="0" toLane="0" dir="s" state="M"/>
    <connection from=":node_20x17_5" to="xedge_20x33" fromLane="0" toLane="0" dir="s" state="M"/>
    <connection from=":node_20x18_0" to="xedge_20x36" fromLane="0" toLane="0" dir="s" state="M"/>
    <connection from=":node_20x18_1" to="yedge_18x39" fromLane="0" toLane="0" dir="s" state="M"/>
    <connection from=":node_20x18_2" to="xedge_20x35" fromLane="0" toLane="0" dir="s" state="M"/>
    <connection from=":node_20x18_3" to="xedge_20x36" fromLane="0" toLane="0" dir="s" state="M"/>
    <connection from=":node_20x18_4" to="yedge_18x39" fromLane="0" toLane="0" dir="s" state="M"/>
    <connection from=":node_20x18_5" to="xedge_20x35" fromLane="0" toLane="0" dir="s" state="M"/>
    <connection from=":node_20x19_0" to="xedge_20x38" fromLane="0" toLane="0" dir="s" state="M"/>
    <connection from=":node_20x19_1" to="yedge_19x39" fromLane="0" toLane="0" dir="s" state="M"/>
    <connection from=":node_20x19_2" to="xedge_20x37" fromLane="0" toLane="0" dir="s" state="M"/>
    <connection from=":node_20x19_3" to="xedge_20x38" fromLane="0" toLane="0" dir="s" state="M"/>
    <connection from=":node_20x19_4" to="yedge_19x39" fromLane="0" toLane="0" dir="s" state="M"/>
    <connection from=":node_20x19_5" to="xedge_20x37" fromLane="0" toLane="0" dir="s" state="M"/>
    <connection from=":node_20x20_0" to="yedge_20x39" fromLane="0" toLane="0" dir="s" state="M"/>
    <connection from=":node_20x20_1" to="xedge_20x39" fromLane="0" toLane="0" dir="s" state="M"/>

</net>
