<?xml version="1.0" encoding="UTF-8"?>

<!-- generated on 12/01/16 23:16:38 by SUMO netconvert Version 0.27.1
<?xml version="1.0" encoding="UTF-8"?>

<configuration xmlns:xsi="http://www.w3.org/2001/XMLSchema-instance" xsi:noNamespaceSchemaLocation="http://sumo.dlr.de/xsd/netconvertConfiguration.xsd">

    <input>
        <node-files value="C:\Users\zs633\Capstone\5_logistic\test_1\7_displaced\logistic.nod.xml"/>
        <edge-files value="C:\Users\zs633\Capstone\5_logistic\test_1\7_displaced\logistic.edg.xml"/>
        <connection-files value="C:\Users\zs633\Capstone\5_logistic\test_1\4_plain\test.con.xml"/>
        <tllogic-files value="C:\Users\zs633\Capstone\5_logistic\test_1\4_plain\test.tll.xml"/>
    </input>

    <output>
        <output-file value="C:\Users\zs633\Capstone\5_logistic\test_1\9_output_net\logistic.net.xml"/>
    </output>

    <processing>
        <ignore-errors value="true"/>
        <ignore-errors.edge-type value="true"/>
    </processing>

    <report>
        <verbose value="true"/>
        <xml-validation value="never"/>
        <no-warnings value="true"/>
    </report>

</configuration>
-->

<net version="0.27" xmlns:xsi="http://www.w3.org/2001/XMLSchema-instance" xsi:noNamespaceSchemaLocation="http://sumo.dlr.de/xsd/net_file.xsd">

    <location netOffset="0.00,0.00" convBoundary="0.00,0.00,2000.01,2000.01" origBoundary="-0.00,-0.00,2000.00,2000.00" projParameter="!"/>

    <edge id=":node_00x00_0" function="internal">
        <lane id=":node_00x00_0_0" index="0" disallow="tram rail_urban rail rail_electric ship" speed="13.89" length="7.90" shape="-1.65,3.25 -1.34,1.11 -0.42,-0.42 1.11,-1.34 3.25,-1.65"/>
    </edge>
    <edge id=":node_00x00_1" function="internal">
        <lane id=":node_00x00_1_0" index="0" disallow="tram rail_urban rail rail_electric ship" speed="13.89" length="2.58" shape="3.25,1.65 2.55,1.75 2.05,2.05 1.75,2.55 1.65,3.25"/>
    </edge>
    <edge id=":node_00x01_0" function="internal">
        <lane id=":node_00x01_0_0" index="0" disallow="tram rail_urban rail rail_electric ship" speed="13.89" length="9.50" shape="-1.65,104.75 -1.65,95.25"/>
    </edge>
    <edge id=":node_00x01_1" function="internal">
        <lane id=":node_00x01_1_0" index="0" disallow="tram rail_urban rail rail_electric ship" speed="13.89" length="10.32" shape="-1.65,104.75 -1.25,101.95 -0.05,99.95 1.95,98.75 4.75,98.35"/>
    </edge>
    <edge id=":node_00x01_2" function="internal">
        <lane id=":node_00x01_2_0" index="0" disallow="tram rail_urban rail rail_electric ship" speed="13.89" length="5.00" shape="4.75,101.65 3.39,101.85 2.43,102.43 1.84,103.40 1.65,104.75"/>
    </edge>
    <edge id=":node_00x01_3" function="internal">
        <lane id=":node_00x01_3_0" index="0" disallow="tram rail_urban rail rail_electric ship" speed="13.89" length="10.32" shape="4.75,101.65 1.95,101.25 -0.05,100.05 -1.25,98.05 -1.65,95.25"/>
    </edge>
    <edge id=":node_00x01_4" function="internal">
        <lane id=":node_00x01_4_0" index="0" disallow="tram rail_urban rail rail_electric ship" speed="13.89" length="5.00" shape="1.65,95.25 1.84,96.61 2.43,97.58 3.39,98.16 4.75,98.35"/>
    </edge>
    <edge id=":node_00x01_5" function="internal">
        <lane id=":node_00x01_5_0" index="0" disallow="tram rail_urban rail rail_electric ship" speed="13.89" length="9.50" shape="1.65,95.25 1.65,104.75"/>
    </edge>
    <edge id=":node_00x02_0" function="internal">
        <lane id=":node_00x02_0_0" index="0" disallow="tram rail_urban rail rail_electric ship" speed="13.89" length="9.50" shape="-1.65,204.75 -1.65,195.25"/>
    </edge>
    <edge id=":node_00x02_1" function="internal">
        <lane id=":node_00x02_1_0" index="0" disallow="tram rail_urban rail rail_electric ship" speed="13.89" length="10.32" shape="-1.65,204.75 -1.25,201.95 -0.05,199.95 1.95,198.75 4.75,198.35"/>
    </edge>
    <edge id=":node_00x02_2" function="internal">
        <lane id=":node_00x02_2_0" index="0" disallow="tram rail_urban rail rail_electric ship" speed="13.89" length="5.00" shape="4.75,201.65 3.39,201.85 2.43,202.43 1.84,203.40 1.65,204.75"/>
    </edge>
    <edge id=":node_00x02_3" function="internal">
        <lane id=":node_00x02_3_0" index="0" disallow="tram rail_urban rail rail_electric ship" speed="13.89" length="10.32" shape="4.75,201.65 1.95,201.25 -0.05,200.05 -1.25,198.05 -1.65,195.25"/>
    </edge>
    <edge id=":node_00x02_4" function="internal">
        <lane id=":node_00x02_4_0" index="0" disallow="tram rail_urban rail rail_electric ship" speed="13.89" length="5.00" shape="1.65,195.25 1.84,196.61 2.43,197.58 3.39,198.16 4.75,198.35"/>
    </edge>
    <edge id=":node_00x02_5" function="internal">
        <lane id=":node_00x02_5_0" index="0" disallow="tram rail_urban rail rail_electric ship" speed="13.89" length="9.50" shape="1.65,195.25 1.65,204.75"/>
    </edge>
    <edge id=":node_00x03_0" function="internal">
        <lane id=":node_00x03_0_0" index="0" disallow="tram rail_urban rail rail_electric ship" speed="13.89" length="9.50" shape="-1.65,304.75 -1.65,295.25"/>
    </edge>
    <edge id=":node_00x03_1" function="internal">
        <lane id=":node_00x03_1_0" index="0" disallow="tram rail_urban rail rail_electric ship" speed="13.89" length="10.32" shape="-1.65,304.75 -1.25,301.95 -0.05,299.95 1.95,298.75 4.75,298.35"/>
    </edge>
    <edge id=":node_00x03_2" function="internal">
        <lane id=":node_00x03_2_0" index="0" disallow="tram rail_urban rail rail_electric ship" speed="13.89" length="5.00" shape="4.75,301.65 3.39,301.85 2.43,302.43 1.84,303.40 1.65,304.75"/>
    </edge>
    <edge id=":node_00x03_3" function="internal">
        <lane id=":node_00x03_3_0" index="0" disallow="tram rail_urban rail rail_electric ship" speed="13.89" length="10.32" shape="4.75,301.65 1.95,301.25 -0.05,300.05 -1.25,298.05 -1.65,295.25"/>
    </edge>
    <edge id=":node_00x03_4" function="internal">
        <lane id=":node_00x03_4_0" index="0" disallow="tram rail_urban rail rail_electric ship" speed="13.89" length="5.00" shape="1.65,295.25 1.84,296.61 2.43,297.58 3.39,298.16 4.75,298.35"/>
    </edge>
    <edge id=":node_00x03_5" function="internal">
        <lane id=":node_00x03_5_0" index="0" disallow="tram rail_urban rail rail_electric ship" speed="13.89" length="9.50" shape="1.65,295.25 1.65,304.75"/>
    </edge>
    <edge id=":node_00x04_0" function="internal">
        <lane id=":node_00x04_0_0" index="0" disallow="tram rail_urban rail rail_electric ship" speed="13.89" length="9.50" shape="-1.65,404.75 -1.65,395.25"/>
    </edge>
    <edge id=":node_00x04_1" function="internal">
        <lane id=":node_00x04_1_0" index="0" disallow="tram rail_urban rail rail_electric ship" speed="13.89" length="10.32" shape="-1.65,404.75 -1.25,401.95 -0.05,399.95 1.95,398.75 4.75,398.35"/>
    </edge>
    <edge id=":node_00x04_2" function="internal">
        <lane id=":node_00x04_2_0" index="0" disallow="tram rail_urban rail rail_electric ship" speed="13.89" length="5.00" shape="4.75,401.65 3.39,401.85 2.43,402.43 1.84,403.40 1.65,404.75"/>
    </edge>
    <edge id=":node_00x04_3" function="internal">
        <lane id=":node_00x04_3_0" index="0" disallow="tram rail_urban rail rail_electric ship" speed="13.89" length="10.32" shape="4.75,401.65 1.95,401.25 -0.05,400.05 -1.25,398.05 -1.65,395.25"/>
    </edge>
    <edge id=":node_00x04_4" function="internal">
        <lane id=":node_00x04_4_0" index="0" disallow="tram rail_urban rail rail_electric ship" speed="13.89" length="5.00" shape="1.65,395.25 1.84,396.61 2.43,397.58 3.39,398.16 4.75,398.35"/>
    </edge>
    <edge id=":node_00x04_5" function="internal">
        <lane id=":node_00x04_5_0" index="0" disallow="tram rail_urban rail rail_electric ship" speed="13.89" length="9.50" shape="1.65,395.25 1.65,404.75"/>
    </edge>
    <edge id=":node_00x05_0" function="internal">
        <lane id=":node_00x05_0_0" index="0" disallow="tram rail_urban rail rail_electric ship" speed="13.89" length="9.50" shape="-1.65,504.75 -1.65,495.25"/>
    </edge>
    <edge id=":node_00x05_1" function="internal">
        <lane id=":node_00x05_1_0" index="0" disallow="tram rail_urban rail rail_electric ship" speed="13.89" length="10.32" shape="-1.65,504.75 -1.25,501.95 -0.05,499.95 1.95,498.75 4.75,498.35"/>
    </edge>
    <edge id=":node_00x05_2" function="internal">
        <lane id=":node_00x05_2_0" index="0" disallow="tram rail_urban rail rail_electric ship" speed="13.89" length="5.00" shape="4.75,501.65 3.39,501.85 2.43,502.43 1.84,503.40 1.65,504.75"/>
    </edge>
    <edge id=":node_00x05_3" function="internal">
        <lane id=":node_00x05_3_0" index="0" disallow="tram rail_urban rail rail_electric ship" speed="13.89" length="10.32" shape="4.75,501.65 1.95,501.25 -0.05,500.05 -1.25,498.05 -1.65,495.25"/>
    </edge>
    <edge id=":node_00x05_4" function="internal">
        <lane id=":node_00x05_4_0" index="0" disallow="tram rail_urban rail rail_electric ship" speed="13.89" length="5.00" shape="1.65,495.25 1.84,496.61 2.43,497.58 3.39,498.16 4.75,498.35"/>
    </edge>
    <edge id=":node_00x05_5" function="internal">
        <lane id=":node_00x05_5_0" index="0" disallow="tram rail_urban rail rail_electric ship" speed="13.89" length="9.50" shape="1.65,495.25 1.65,504.75"/>
    </edge>
    <edge id=":node_00x06_0" function="internal">
        <lane id=":node_00x06_0_0" index="0" disallow="tram rail_urban rail rail_electric ship" speed="13.89" length="9.50" shape="-1.65,604.75 -1.65,595.25"/>
    </edge>
    <edge id=":node_00x06_1" function="internal">
        <lane id=":node_00x06_1_0" index="0" disallow="tram rail_urban rail rail_electric ship" speed="13.89" length="10.32" shape="-1.65,604.75 -1.25,601.95 -0.05,599.95 1.95,598.75 4.75,598.35"/>
    </edge>
    <edge id=":node_00x06_2" function="internal">
        <lane id=":node_00x06_2_0" index="0" disallow="tram rail_urban rail rail_electric ship" speed="13.89" length="5.00" shape="4.75,601.65 3.39,601.85 2.43,602.43 1.84,603.40 1.65,604.75"/>
    </edge>
    <edge id=":node_00x06_3" function="internal">
        <lane id=":node_00x06_3_0" index="0" disallow="tram rail_urban rail rail_electric ship" speed="13.89" length="10.32" shape="4.75,601.65 1.95,601.25 -0.05,600.05 -1.25,598.05 -1.65,595.25"/>
    </edge>
    <edge id=":node_00x06_4" function="internal">
        <lane id=":node_00x06_4_0" index="0" disallow="tram rail_urban rail rail_electric ship" speed="13.89" length="5.00" shape="1.65,595.25 1.84,596.61 2.43,597.58 3.39,598.16 4.75,598.35"/>
    </edge>
    <edge id=":node_00x06_5" function="internal">
        <lane id=":node_00x06_5_0" index="0" disallow="tram rail_urban rail rail_electric ship" speed="13.89" length="9.50" shape="1.65,595.25 1.65,604.75"/>
    </edge>
    <edge id=":node_00x07_0" function="internal">
        <lane id=":node_00x07_0_0" index="0" disallow="tram rail_urban rail rail_electric ship" speed="13.89" length="9.50" shape="-1.65,704.75 -1.65,695.25"/>
    </edge>
    <edge id=":node_00x07_1" function="internal">
        <lane id=":node_00x07_1_0" index="0" disallow="tram rail_urban rail rail_electric ship" speed="13.89" length="10.32" shape="-1.65,704.75 -1.25,701.95 -0.05,699.95 1.95,698.75 4.75,698.35"/>
    </edge>
    <edge id=":node_00x07_2" function="internal">
        <lane id=":node_00x07_2_0" index="0" disallow="tram rail_urban rail rail_electric ship" speed="13.89" length="5.00" shape="4.75,701.65 3.39,701.85 2.43,702.43 1.84,703.40 1.65,704.75"/>
    </edge>
    <edge id=":node_00x07_3" function="internal">
        <lane id=":node_00x07_3_0" index="0" disallow="tram rail_urban rail rail_electric ship" speed="13.89" length="10.32" shape="4.75,701.65 1.95,701.25 -0.05,700.05 -1.25,698.05 -1.65,695.25"/>
    </edge>
    <edge id=":node_00x07_4" function="internal">
        <lane id=":node_00x07_4_0" index="0" disallow="tram rail_urban rail rail_electric ship" speed="13.89" length="5.00" shape="1.65,695.25 1.84,696.61 2.43,697.58 3.39,698.16 4.75,698.35"/>
    </edge>
    <edge id=":node_00x07_5" function="internal">
        <lane id=":node_00x07_5_0" index="0" disallow="tram rail_urban rail rail_electric ship" speed="13.89" length="9.50" shape="1.65,695.25 1.65,704.75"/>
    </edge>
    <edge id=":node_00x08_0" function="internal">
        <lane id=":node_00x08_0_0" index="0" disallow="tram rail_urban rail rail_electric ship" speed="13.89" length="9.50" shape="-1.65,804.75 -1.65,795.25"/>
    </edge>
    <edge id=":node_00x08_1" function="internal">
        <lane id=":node_00x08_1_0" index="0" disallow="tram rail_urban rail rail_electric ship" speed="13.89" length="10.32" shape="-1.65,804.75 -1.25,801.95 -0.05,799.95 1.95,798.75 4.75,798.35"/>
    </edge>
    <edge id=":node_00x08_2" function="internal">
        <lane id=":node_00x08_2_0" index="0" disallow="tram rail_urban rail rail_electric ship" speed="13.89" length="5.00" shape="4.75,801.65 3.39,801.85 2.43,802.43 1.84,803.40 1.65,804.75"/>
    </edge>
    <edge id=":node_00x08_3" function="internal">
        <lane id=":node_00x08_3_0" index="0" disallow="tram rail_urban rail rail_electric ship" speed="13.89" length="10.32" shape="4.75,801.65 1.95,801.25 -0.05,800.05 -1.25,798.05 -1.65,795.25"/>
    </edge>
    <edge id=":node_00x08_4" function="internal">
        <lane id=":node_00x08_4_0" index="0" disallow="tram rail_urban rail rail_electric ship" speed="13.89" length="5.00" shape="1.65,795.25 1.84,796.61 2.43,797.58 3.39,798.16 4.75,798.35"/>
    </edge>
    <edge id=":node_00x08_5" function="internal">
        <lane id=":node_00x08_5_0" index="0" disallow="tram rail_urban rail rail_electric ship" speed="13.89" length="9.50" shape="1.65,795.25 1.65,804.75"/>
    </edge>
    <edge id=":node_00x09_0" function="internal">
        <lane id=":node_00x09_0_0" index="0" disallow="tram rail_urban rail rail_electric ship" speed="13.89" length="9.50" shape="-1.65,904.75 -1.65,895.25"/>
    </edge>
    <edge id=":node_00x09_1" function="internal">
        <lane id=":node_00x09_1_0" index="0" disallow="tram rail_urban rail rail_electric ship" speed="13.89" length="10.32" shape="-1.65,904.75 -1.25,901.95 -0.05,899.95 1.95,898.75 4.75,898.35"/>
    </edge>
    <edge id=":node_00x09_2" function="internal">
        <lane id=":node_00x09_2_0" index="0" disallow="tram rail_urban rail rail_electric ship" speed="13.89" length="5.00" shape="4.75,901.65 3.39,901.85 2.43,902.43 1.84,903.40 1.65,904.75"/>
    </edge>
    <edge id=":node_00x09_3" function="internal">
        <lane id=":node_00x09_3_0" index="0" disallow="tram rail_urban rail rail_electric ship" speed="13.89" length="10.32" shape="4.75,901.65 1.95,901.25 -0.05,900.05 -1.25,898.05 -1.65,895.25"/>
    </edge>
    <edge id=":node_00x09_4" function="internal">
        <lane id=":node_00x09_4_0" index="0" disallow="tram rail_urban rail rail_electric ship" speed="13.89" length="5.00" shape="1.65,895.25 1.84,896.61 2.43,897.58 3.39,898.16 4.75,898.35"/>
    </edge>
    <edge id=":node_00x09_5" function="internal">
        <lane id=":node_00x09_5_0" index="0" disallow="tram rail_urban rail rail_electric ship" speed="13.89" length="9.50" shape="1.65,895.25 1.65,904.75"/>
    </edge>
    <edge id=":node_00x10_0" function="internal">
        <lane id=":node_00x10_0_0" index="0" disallow="tram rail_urban rail rail_electric ship" speed="13.89" length="9.50" shape="-1.65,1004.75 -1.65,995.25"/>
    </edge>
    <edge id=":node_00x10_1" function="internal">
        <lane id=":node_00x10_1_0" index="0" disallow="tram rail_urban rail rail_electric ship" speed="13.89" length="10.32" shape="-1.65,1004.75 -1.25,1001.95 -0.05,999.95 1.95,998.75 4.75,998.35"/>
    </edge>
    <edge id=":node_00x10_2" function="internal">
        <lane id=":node_00x10_2_0" index="0" disallow="tram rail_urban rail rail_electric ship" speed="13.89" length="5.00" shape="4.75,1001.65 3.39,1001.85 2.43,1002.43 1.84,1003.40 1.65,1004.75"/>
    </edge>
    <edge id=":node_00x10_3" function="internal">
        <lane id=":node_00x10_3_0" index="0" disallow="tram rail_urban rail rail_electric ship" speed="13.89" length="10.32" shape="4.75,1001.65 1.95,1001.25 -0.05,1000.05 -1.25,998.05 -1.65,995.25"/>
    </edge>
    <edge id=":node_00x10_4" function="internal">
        <lane id=":node_00x10_4_0" index="0" disallow="tram rail_urban rail rail_electric ship" speed="13.89" length="5.00" shape="1.65,995.25 1.84,996.61 2.43,997.58 3.39,998.16 4.75,998.35"/>
    </edge>
    <edge id=":node_00x10_5" function="internal">
        <lane id=":node_00x10_5_0" index="0" disallow="tram rail_urban rail rail_electric ship" speed="13.89" length="9.50" shape="1.65,995.25 1.65,1004.75"/>
    </edge>
    <edge id=":node_00x11_0" function="internal">
        <lane id=":node_00x11_0_0" index="0" disallow="tram rail_urban rail rail_electric ship" speed="13.89" length="9.50" shape="-1.65,1104.75 -1.65,1095.25"/>
    </edge>
    <edge id=":node_00x11_1" function="internal">
        <lane id=":node_00x11_1_0" index="0" disallow="tram rail_urban rail rail_electric ship" speed="13.89" length="10.32" shape="-1.65,1104.75 -1.25,1101.95 -0.05,1099.95 1.95,1098.75 4.75,1098.35"/>
    </edge>
    <edge id=":node_00x11_2" function="internal">
        <lane id=":node_00x11_2_0" index="0" disallow="tram rail_urban rail rail_electric ship" speed="13.89" length="5.00" shape="4.75,1101.65 3.39,1101.85 2.43,1102.43 1.84,1103.40 1.65,1104.75"/>
    </edge>
    <edge id=":node_00x11_3" function="internal">
        <lane id=":node_00x11_3_0" index="0" disallow="tram rail_urban rail rail_electric ship" speed="13.89" length="10.32" shape="4.75,1101.65 1.95,1101.25 -0.05,1100.05 -1.25,1098.05 -1.65,1095.25"/>
    </edge>
    <edge id=":node_00x11_4" function="internal">
        <lane id=":node_00x11_4_0" index="0" disallow="tram rail_urban rail rail_electric ship" speed="13.89" length="5.00" shape="1.65,1095.25 1.84,1096.61 2.43,1097.58 3.39,1098.16 4.75,1098.35"/>
    </edge>
    <edge id=":node_00x11_5" function="internal">
        <lane id=":node_00x11_5_0" index="0" disallow="tram rail_urban rail rail_electric ship" speed="13.89" length="9.50" shape="1.65,1095.25 1.65,1104.75"/>
    </edge>
    <edge id=":node_00x12_0" function="internal">
        <lane id=":node_00x12_0_0" index="0" disallow="tram rail_urban rail rail_electric ship" speed="13.89" length="9.50" shape="-1.65,1204.75 -1.65,1195.25"/>
    </edge>
    <edge id=":node_00x12_1" function="internal">
        <lane id=":node_00x12_1_0" index="0" disallow="tram rail_urban rail rail_electric ship" speed="13.89" length="10.32" shape="-1.65,1204.75 -1.25,1201.95 -0.05,1199.95 1.95,1198.75 4.75,1198.35"/>
    </edge>
    <edge id=":node_00x12_2" function="internal">
        <lane id=":node_00x12_2_0" index="0" disallow="tram rail_urban rail rail_electric ship" speed="13.89" length="5.00" shape="4.75,1201.65 3.39,1201.85 2.43,1202.43 1.84,1203.40 1.65,1204.75"/>
    </edge>
    <edge id=":node_00x12_3" function="internal">
        <lane id=":node_00x12_3_0" index="0" disallow="tram rail_urban rail rail_electric ship" speed="13.89" length="10.32" shape="4.75,1201.65 1.95,1201.25 -0.05,1200.05 -1.25,1198.05 -1.65,1195.25"/>
    </edge>
    <edge id=":node_00x12_4" function="internal">
        <lane id=":node_00x12_4_0" index="0" disallow="tram rail_urban rail rail_electric ship" speed="13.89" length="5.00" shape="1.65,1195.25 1.84,1196.61 2.43,1197.58 3.39,1198.16 4.75,1198.35"/>
    </edge>
    <edge id=":node_00x12_5" function="internal">
        <lane id=":node_00x12_5_0" index="0" disallow="tram rail_urban rail rail_electric ship" speed="13.89" length="9.50" shape="1.65,1195.25 1.65,1204.75"/>
    </edge>
    <edge id=":node_00x13_0" function="internal">
        <lane id=":node_00x13_0_0" index="0" disallow="tram rail_urban rail rail_electric ship" speed="13.89" length="9.50" shape="-1.65,1304.75 -1.65,1295.25"/>
    </edge>
    <edge id=":node_00x13_1" function="internal">
        <lane id=":node_00x13_1_0" index="0" disallow="tram rail_urban rail rail_electric ship" speed="13.89" length="10.32" shape="-1.65,1304.75 -1.25,1301.95 -0.05,1299.95 1.95,1298.75 4.75,1298.35"/>
    </edge>
    <edge id=":node_00x13_2" function="internal">
        <lane id=":node_00x13_2_0" index="0" disallow="tram rail_urban rail rail_electric ship" speed="13.89" length="5.00" shape="4.75,1301.65 3.39,1301.85 2.43,1302.43 1.84,1303.40 1.65,1304.75"/>
    </edge>
    <edge id=":node_00x13_3" function="internal">
        <lane id=":node_00x13_3_0" index="0" disallow="tram rail_urban rail rail_electric ship" speed="13.89" length="10.32" shape="4.75,1301.65 1.95,1301.25 -0.05,1300.05 -1.25,1298.05 -1.65,1295.25"/>
    </edge>
    <edge id=":node_00x13_4" function="internal">
        <lane id=":node_00x13_4_0" index="0" disallow="tram rail_urban rail rail_electric ship" speed="13.89" length="5.00" shape="1.65,1295.25 1.84,1296.61 2.43,1297.58 3.39,1298.16 4.75,1298.35"/>
    </edge>
    <edge id=":node_00x13_5" function="internal">
        <lane id=":node_00x13_5_0" index="0" disallow="tram rail_urban rail rail_electric ship" speed="13.89" length="9.50" shape="1.65,1295.25 1.65,1304.75"/>
    </edge>
    <edge id=":node_00x14_0" function="internal">
        <lane id=":node_00x14_0_0" index="0" disallow="tram rail_urban rail rail_electric ship" speed="13.89" length="9.50" shape="-1.65,1404.75 -1.65,1395.25"/>
    </edge>
    <edge id=":node_00x14_1" function="internal">
        <lane id=":node_00x14_1_0" index="0" disallow="tram rail_urban rail rail_electric ship" speed="13.89" length="10.32" shape="-1.65,1404.75 -1.25,1401.95 -0.05,1399.95 1.95,1398.75 4.75,1398.35"/>
    </edge>
    <edge id=":node_00x14_2" function="internal">
        <lane id=":node_00x14_2_0" index="0" disallow="tram rail_urban rail rail_electric ship" speed="13.89" length="5.00" shape="4.75,1401.65 3.39,1401.85 2.43,1402.43 1.84,1403.40 1.65,1404.75"/>
    </edge>
    <edge id=":node_00x14_3" function="internal">
        <lane id=":node_00x14_3_0" index="0" disallow="tram rail_urban rail rail_electric ship" speed="13.89" length="10.32" shape="4.75,1401.65 1.95,1401.25 -0.05,1400.05 -1.25,1398.05 -1.65,1395.25"/>
    </edge>
    <edge id=":node_00x14_4" function="internal">
        <lane id=":node_00x14_4_0" index="0" disallow="tram rail_urban rail rail_electric ship" speed="13.89" length="5.00" shape="1.65,1395.25 1.84,1396.61 2.43,1397.58 3.39,1398.16 4.75,1398.35"/>
    </edge>
    <edge id=":node_00x14_5" function="internal">
        <lane id=":node_00x14_5_0" index="0" disallow="tram rail_urban rail rail_electric ship" speed="13.89" length="9.50" shape="1.65,1395.25 1.65,1404.75"/>
    </edge>
    <edge id=":node_00x15_0" function="internal">
        <lane id=":node_00x15_0_0" index="0" disallow="tram rail_urban rail rail_electric ship" speed="13.89" length="9.50" shape="-1.65,1504.75 -1.65,1495.25"/>
    </edge>
    <edge id=":node_00x15_1" function="internal">
        <lane id=":node_00x15_1_0" index="0" disallow="tram rail_urban rail rail_electric ship" speed="13.89" length="10.32" shape="-1.65,1504.75 -1.25,1501.95 -0.05,1499.95 1.95,1498.75 4.75,1498.35"/>
    </edge>
    <edge id=":node_00x15_2" function="internal">
        <lane id=":node_00x15_2_0" index="0" disallow="tram rail_urban rail rail_electric ship" speed="13.89" length="5.00" shape="4.75,1501.65 3.39,1501.85 2.43,1502.43 1.84,1503.40 1.65,1504.75"/>
    </edge>
    <edge id=":node_00x15_3" function="internal">
        <lane id=":node_00x15_3_0" index="0" disallow="tram rail_urban rail rail_electric ship" speed="13.89" length="10.32" shape="4.75,1501.65 1.95,1501.25 -0.05,1500.05 -1.25,1498.05 -1.65,1495.25"/>
    </edge>
    <edge id=":node_00x15_4" function="internal">
        <lane id=":node_00x15_4_0" index="0" disallow="tram rail_urban rail rail_electric ship" speed="13.89" length="5.00" shape="1.65,1495.25 1.84,1496.61 2.43,1497.58 3.39,1498.16 4.75,1498.35"/>
    </edge>
    <edge id=":node_00x15_5" function="internal">
        <lane id=":node_00x15_5_0" index="0" disallow="tram rail_urban rail rail_electric ship" speed="13.89" length="9.50" shape="1.65,1495.25 1.65,1504.75"/>
    </edge>
    <edge id=":node_00x16_0" function="internal">
        <lane id=":node_00x16_0_0" index="0" disallow="tram rail_urban rail rail_electric ship" speed="13.89" length="9.50" shape="-1.65,1604.75 -1.65,1595.25"/>
    </edge>
    <edge id=":node_00x16_1" function="internal">
        <lane id=":node_00x16_1_0" index="0" disallow="tram rail_urban rail rail_electric ship" speed="13.89" length="10.32" shape="-1.65,1604.75 -1.25,1601.95 -0.05,1599.95 1.95,1598.75 4.75,1598.35"/>
    </edge>
    <edge id=":node_00x16_2" function="internal">
        <lane id=":node_00x16_2_0" index="0" disallow="tram rail_urban rail rail_electric ship" speed="13.89" length="5.00" shape="4.75,1601.65 3.39,1601.85 2.43,1602.43 1.84,1603.40 1.65,1604.75"/>
    </edge>
    <edge id=":node_00x16_3" function="internal">
        <lane id=":node_00x16_3_0" index="0" disallow="tram rail_urban rail rail_electric ship" speed="13.89" length="10.32" shape="4.75,1601.65 1.95,1601.25 -0.05,1600.05 -1.25,1598.05 -1.65,1595.25"/>
    </edge>
    <edge id=":node_00x16_4" function="internal">
        <lane id=":node_00x16_4_0" index="0" disallow="tram rail_urban rail rail_electric ship" speed="13.89" length="5.00" shape="1.65,1595.25 1.84,1596.61 2.43,1597.58 3.39,1598.16 4.75,1598.35"/>
    </edge>
    <edge id=":node_00x16_5" function="internal">
        <lane id=":node_00x16_5_0" index="0" disallow="tram rail_urban rail rail_electric ship" speed="13.89" length="9.50" shape="1.65,1595.25 1.65,1604.75"/>
    </edge>
    <edge id=":node_00x17_0" function="internal">
        <lane id=":node_00x17_0_0" index="0" disallow="tram rail_urban rail rail_electric ship" speed="13.89" length="9.50" shape="-1.65,1704.75 -1.65,1695.25"/>
    </edge>
    <edge id=":node_00x17_1" function="internal">
        <lane id=":node_00x17_1_0" index="0" disallow="tram rail_urban rail rail_electric ship" speed="13.89" length="10.32" shape="-1.65,1704.75 -1.25,1701.95 -0.05,1699.95 1.95,1698.75 4.75,1698.35"/>
    </edge>
    <edge id=":node_00x17_2" function="internal">
        <lane id=":node_00x17_2_0" index="0" disallow="tram rail_urban rail rail_electric ship" speed="13.89" length="5.00" shape="4.75,1701.65 3.39,1701.85 2.43,1702.43 1.84,1703.40 1.65,1704.75"/>
    </edge>
    <edge id=":node_00x17_3" function="internal">
        <lane id=":node_00x17_3_0" index="0" disallow="tram rail_urban rail rail_electric ship" speed="13.89" length="10.32" shape="4.75,1701.65 1.95,1701.25 -0.05,1700.05 -1.25,1698.05 -1.65,1695.25"/>
    </edge>
    <edge id=":node_00x17_4" function="internal">
        <lane id=":node_00x17_4_0" index="0" disallow="tram rail_urban rail rail_electric ship" speed="13.89" length="5.00" shape="1.65,1695.25 1.84,1696.61 2.43,1697.58 3.39,1698.16 4.75,1698.35"/>
    </edge>
    <edge id=":node_00x17_5" function="internal">
        <lane id=":node_00x17_5_0" index="0" disallow="tram rail_urban rail rail_electric ship" speed="13.89" length="9.50" shape="1.65,1695.25 1.65,1704.75"/>
    </edge>
    <edge id=":node_00x18_0" function="internal">
        <lane id=":node_00x18_0_0" index="0" disallow="tram rail_urban rail rail_electric ship" speed="13.89" length="9.50" shape="-1.65,1804.75 -1.65,1795.25"/>
    </edge>
    <edge id=":node_00x18_1" function="internal">
        <lane id=":node_00x18_1_0" index="0" disallow="tram rail_urban rail rail_electric ship" speed="13.89" length="10.32" shape="-1.65,1804.75 -1.25,1801.95 -0.05,1799.95 1.95,1798.75 4.75,1798.35"/>
    </edge>
    <edge id=":node_00x18_2" function="internal">
        <lane id=":node_00x18_2_0" index="0" disallow="tram rail_urban rail rail_electric ship" speed="13.89" length="5.00" shape="4.75,1801.65 3.39,1801.85 2.43,1802.43 1.84,1803.40 1.65,1804.75"/>
    </edge>
    <edge id=":node_00x18_3" function="internal">
        <lane id=":node_00x18_3_0" index="0" disallow="tram rail_urban rail rail_electric ship" speed="13.89" length="10.32" shape="4.75,1801.65 1.95,1801.25 -0.05,1800.05 -1.25,1798.05 -1.65,1795.25"/>
    </edge>
    <edge id=":node_00x18_4" function="internal">
        <lane id=":node_00x18_4_0" index="0" disallow="tram rail_urban rail rail_electric ship" speed="13.89" length="5.00" shape="1.65,1795.25 1.84,1796.61 2.43,1797.58 3.39,1798.16 4.75,1798.35"/>
    </edge>
    <edge id=":node_00x18_5" function="internal">
        <lane id=":node_00x18_5_0" index="0" disallow="tram rail_urban rail rail_electric ship" speed="13.89" length="9.50" shape="1.65,1795.25 1.65,1804.75"/>
    </edge>
    <edge id=":node_00x19_0" function="internal">
        <lane id=":node_00x19_0_0" index="0" disallow="tram rail_urban rail rail_electric ship" speed="13.89" length="9.50" shape="-1.65,1904.75 -1.65,1895.25"/>
    </edge>
    <edge id=":node_00x19_1" function="internal">
        <lane id=":node_00x19_1_0" index="0" disallow="tram rail_urban rail rail_electric ship" speed="13.89" length="10.32" shape="-1.65,1904.75 -1.25,1901.95 -0.05,1899.95 1.95,1898.75 4.75,1898.35"/>
    </edge>
    <edge id=":node_00x19_2" function="internal">
        <lane id=":node_00x19_2_0" index="0" disallow="tram rail_urban rail rail_electric ship" speed="13.89" length="5.00" shape="4.75,1901.65 3.39,1901.85 2.43,1902.43 1.84,1903.40 1.65,1904.75"/>
    </edge>
    <edge id=":node_00x19_3" function="internal">
        <lane id=":node_00x19_3_0" index="0" disallow="tram rail_urban rail rail_electric ship" speed="13.89" length="10.32" shape="4.75,1901.65 1.95,1901.25 -0.05,1900.05 -1.25,1898.05 -1.65,1895.25"/>
    </edge>
    <edge id=":node_00x19_4" function="internal">
        <lane id=":node_00x19_4_0" index="0" disallow="tram rail_urban rail rail_electric ship" speed="13.89" length="5.00" shape="1.65,1895.25 1.84,1896.61 2.43,1897.58 3.39,1898.16 4.75,1898.35"/>
    </edge>
    <edge id=":node_00x19_5" function="internal">
        <lane id=":node_00x19_5_0" index="0" disallow="tram rail_urban rail rail_electric ship" speed="13.89" length="9.50" shape="1.65,1895.25 1.65,1904.75"/>
    </edge>
    <edge id=":node_00x20_0" function="internal">
        <lane id=":node_00x20_0_0" index="0" disallow="tram rail_urban rail rail_electric ship" speed="13.89" length="7.90" shape="3.25,2001.66 1.11,2001.35 -0.42,2000.43 -1.34,1998.90 -1.65,1996.76"/>
    </edge>
    <edge id=":node_00x20_1" function="internal">
        <lane id=":node_00x20_1_0" index="0" disallow="tram rail_urban rail rail_electric ship" speed="13.89" length="2.58" shape="1.65,1996.76 1.75,1997.46 2.05,1997.96 2.55,1998.26 3.25,1998.36"/>
    </edge>
    <edge id=":node_01x00_0" function="internal">
        <lane id=":node_01x00_0_0" index="0" disallow="tram rail_urban rail rail_electric ship" speed="13.89" length="5.00" shape="98.35,4.75 98.16,3.39 97.58,2.43 96.61,1.84 95.25,1.65"/>
    </edge>
    <edge id=":node_01x00_1" function="internal">
        <lane id=":node_01x00_1_0" index="0" disallow="tram rail_urban rail rail_electric ship" speed="13.89" length="10.32" shape="98.35,4.75 98.75,1.95 99.95,-0.05 101.95,-1.25 104.75,-1.65"/>
    </edge>
    <edge id=":node_01x00_2" function="internal">
        <lane id=":node_01x00_2_0" index="0" disallow="tram rail_urban rail rail_electric ship" speed="13.89" length="5.00" shape="104.75,1.65 103.40,1.84 102.43,2.43 101.85,3.39 101.65,4.75"/>
    </edge>
    <edge id=":node_01x00_3" function="internal">
        <lane id=":node_01x00_3_0" index="0" disallow="tram rail_urban rail rail_electric ship" speed="13.89" length="9.50" shape="104.75,1.65 95.25,1.65"/>
    </edge>
    <edge id=":node_01x00_4" function="internal">
        <lane id=":node_01x00_4_0" index="0" disallow="tram rail_urban rail rail_electric ship" speed="13.89" length="9.50" shape="95.25,-1.65 104.75,-1.65"/>
    </edge>
    <edge id=":node_01x00_5" function="internal">
        <lane id=":node_01x00_5_0" index="0" disallow="tram rail_urban rail rail_electric ship" speed="13.89" length="10.32" shape="95.25,-1.65 98.05,-1.25 100.05,-0.05 101.25,1.95 101.65,4.75"/>
    </edge>
    <edge id=":node_01x01_0" function="internal">
        <lane id=":node_01x01_0_0" index="0" disallow="tram rail_urban rail rail_electric ship" speed="13.89" length="5.00" shape="98.35,104.75 98.16,103.40 97.58,102.43 96.61,101.85 95.25,101.65"/>
    </edge>
    <edge id=":node_01x01_1" function="internal">
        <lane id=":node_01x01_1_0" index="0" disallow="tram rail_urban rail rail_electric ship" speed="13.89" length="9.50" shape="98.35,104.75 98.35,95.25"/>
    </edge>
    <edge id=":node_01x01_2" function="internal">
        <lane id=":node_01x01_2_0" index="0" disallow="tram rail_urban rail rail_electric ship" speed="13.89" length="10.32" shape="98.35,104.75 98.75,101.95 99.95,99.95 101.95,98.75 104.75,98.35"/>
    </edge>
    <edge id=":node_01x01_3" function="internal">
        <lane id=":node_01x01_3_0" index="0" disallow="tram rail_urban rail rail_electric ship" speed="13.89" length="5.00" shape="104.75,101.65 103.40,101.85 102.43,102.43 101.85,103.40 101.65,104.75"/>
    </edge>
    <edge id=":node_01x01_4" function="internal">
        <lane id=":node_01x01_4_0" index="0" disallow="tram rail_urban rail rail_electric ship" speed="13.89" length="9.50" shape="104.75,101.65 95.25,101.65"/>
    </edge>
    <edge id=":node_01x01_5" function="internal">
        <lane id=":node_01x01_5_0" index="0" disallow="tram rail_urban rail rail_electric ship" speed="13.89" length="10.32" shape="104.75,101.65 101.95,101.25 99.95,100.05 98.75,98.05 98.35,95.25"/>
    </edge>
    <edge id=":node_01x01_6" function="internal">
        <lane id=":node_01x01_6_0" index="0" disallow="tram rail_urban rail rail_electric ship" speed="13.89" length="5.00" shape="101.65,95.25 101.85,96.61 102.43,97.58 103.40,98.16 104.75,98.35"/>
    </edge>
    <edge id=":node_01x01_7" function="internal">
        <lane id=":node_01x01_7_0" index="0" disallow="tram rail_urban rail rail_electric ship" speed="13.89" length="9.50" shape="101.65,95.25 101.65,104.75"/>
    </edge>
    <edge id=":node_01x01_8" function="internal">
        <lane id=":node_01x01_8_0" index="0" disallow="tram rail_urban rail rail_electric ship" speed="13.89" length="10.32" shape="101.65,95.25 101.25,98.05 100.05,100.05 98.05,101.25 95.25,101.65"/>
    </edge>
    <edge id=":node_01x01_9" function="internal">
        <lane id=":node_01x01_9_0" index="0" disallow="tram rail_urban rail rail_electric ship" speed="13.89" length="5.00" shape="95.25,98.35 96.61,98.16 97.58,97.58 98.16,96.61 98.35,95.25"/>
    </edge>
    <edge id=":node_01x01_10" function="internal">
        <lane id=":node_01x01_10_0" index="0" disallow="tram rail_urban rail rail_electric ship" speed="13.89" length="9.50" shape="95.25,98.35 104.75,98.35"/>
    </edge>
    <edge id=":node_01x01_11" function="internal">
        <lane id=":node_01x01_11_0" index="0" disallow="tram rail_urban rail rail_electric ship" speed="13.89" length="10.32" shape="95.25,98.35 98.05,98.75 100.05,99.95 101.25,101.95 101.65,104.75"/>
    </edge>
    <edge id=":node_01x02_0" function="internal">
        <lane id=":node_01x02_0_0" index="0" disallow="tram rail_urban rail rail_electric ship" speed="13.89" length="5.00" shape="98.35,204.75 98.16,203.40 97.58,202.43 96.61,201.85 95.25,201.65"/>
    </edge>
    <edge id=":node_01x02_1" function="internal">
        <lane id=":node_01x02_1_0" index="0" disallow="tram rail_urban rail rail_electric ship" speed="13.89" length="9.50" shape="98.35,204.75 98.35,195.25"/>
    </edge>
    <edge id=":node_01x02_2" function="internal">
        <lane id=":node_01x02_2_0" index="0" disallow="tram rail_urban rail rail_electric ship" speed="13.89" length="10.32" shape="98.35,204.75 98.75,201.95 99.95,199.95 101.95,198.75 104.75,198.35"/>
    </edge>
    <edge id=":node_01x02_3" function="internal">
        <lane id=":node_01x02_3_0" index="0" disallow="tram rail_urban rail rail_electric ship" speed="13.89" length="5.00" shape="104.75,201.65 103.40,201.85 102.43,202.43 101.85,203.40 101.65,204.75"/>
    </edge>
    <edge id=":node_01x02_4" function="internal">
        <lane id=":node_01x02_4_0" index="0" disallow="tram rail_urban rail rail_electric ship" speed="13.89" length="9.50" shape="104.75,201.65 95.25,201.65"/>
    </edge>
    <edge id=":node_01x02_5" function="internal">
        <lane id=":node_01x02_5_0" index="0" disallow="tram rail_urban rail rail_electric ship" speed="13.89" length="10.32" shape="104.75,201.65 101.95,201.25 99.95,200.05 98.75,198.05 98.35,195.25"/>
    </edge>
    <edge id=":node_01x02_6" function="internal">
        <lane id=":node_01x02_6_0" index="0" disallow="tram rail_urban rail rail_electric ship" speed="13.89" length="5.00" shape="101.65,195.25 101.85,196.61 102.43,197.58 103.40,198.16 104.75,198.35"/>
    </edge>
    <edge id=":node_01x02_7" function="internal">
        <lane id=":node_01x02_7_0" index="0" disallow="tram rail_urban rail rail_electric ship" speed="13.89" length="9.50" shape="101.65,195.25 101.65,204.75"/>
    </edge>
    <edge id=":node_01x02_8" function="internal">
        <lane id=":node_01x02_8_0" index="0" disallow="tram rail_urban rail rail_electric ship" speed="13.89" length="10.32" shape="101.65,195.25 101.25,198.05 100.05,200.05 98.05,201.25 95.25,201.65"/>
    </edge>
    <edge id=":node_01x02_9" function="internal">
        <lane id=":node_01x02_9_0" index="0" disallow="tram rail_urban rail rail_electric ship" speed="13.89" length="5.00" shape="95.25,198.35 96.61,198.16 97.58,197.58 98.16,196.61 98.35,195.25"/>
    </edge>
    <edge id=":node_01x02_10" function="internal">
        <lane id=":node_01x02_10_0" index="0" disallow="tram rail_urban rail rail_electric ship" speed="13.89" length="9.50" shape="95.25,198.35 104.75,198.35"/>
    </edge>
    <edge id=":node_01x02_11" function="internal">
        <lane id=":node_01x02_11_0" index="0" disallow="tram rail_urban rail rail_electric ship" speed="13.89" length="10.32" shape="95.25,198.35 98.05,198.75 100.05,199.95 101.25,201.95 101.65,204.75"/>
    </edge>
    <edge id=":node_01x03_0" function="internal">
        <lane id=":node_01x03_0_0" index="0" disallow="tram rail_urban rail rail_electric ship" speed="13.89" length="5.00" shape="98.35,304.75 98.16,303.40 97.58,302.43 96.61,301.85 95.25,301.65"/>
    </edge>
    <edge id=":node_01x03_1" function="internal">
        <lane id=":node_01x03_1_0" index="0" disallow="tram rail_urban rail rail_electric ship" speed="13.89" length="9.50" shape="98.35,304.75 98.35,295.25"/>
    </edge>
    <edge id=":node_01x03_2" function="internal">
        <lane id=":node_01x03_2_0" index="0" disallow="tram rail_urban rail rail_electric ship" speed="13.89" length="10.32" shape="98.35,304.75 98.75,301.95 99.95,299.95 101.95,298.75 104.75,298.35"/>
    </edge>
    <edge id=":node_01x03_3" function="internal">
        <lane id=":node_01x03_3_0" index="0" disallow="tram rail_urban rail rail_electric ship" speed="13.89" length="5.00" shape="104.75,301.65 103.40,301.85 102.43,302.43 101.85,303.40 101.65,304.75"/>
    </edge>
    <edge id=":node_01x03_4" function="internal">
        <lane id=":node_01x03_4_0" index="0" disallow="tram rail_urban rail rail_electric ship" speed="13.89" length="9.50" shape="104.75,301.65 95.25,301.65"/>
    </edge>
    <edge id=":node_01x03_5" function="internal">
        <lane id=":node_01x03_5_0" index="0" disallow="tram rail_urban rail rail_electric ship" speed="13.89" length="10.32" shape="104.75,301.65 101.95,301.25 99.95,300.05 98.75,298.05 98.35,295.25"/>
    </edge>
    <edge id=":node_01x03_6" function="internal">
        <lane id=":node_01x03_6_0" index="0" disallow="tram rail_urban rail rail_electric ship" speed="13.89" length="5.00" shape="101.65,295.25 101.85,296.61 102.43,297.58 103.40,298.16 104.75,298.35"/>
    </edge>
    <edge id=":node_01x03_7" function="internal">
        <lane id=":node_01x03_7_0" index="0" disallow="tram rail_urban rail rail_electric ship" speed="13.89" length="9.50" shape="101.65,295.25 101.65,304.75"/>
    </edge>
    <edge id=":node_01x03_8" function="internal">
        <lane id=":node_01x03_8_0" index="0" disallow="tram rail_urban rail rail_electric ship" speed="13.89" length="10.32" shape="101.65,295.25 101.25,298.05 100.05,300.05 98.05,301.25 95.25,301.65"/>
    </edge>
    <edge id=":node_01x03_9" function="internal">
        <lane id=":node_01x03_9_0" index="0" disallow="tram rail_urban rail rail_electric ship" speed="13.89" length="5.00" shape="95.25,298.35 96.61,298.16 97.58,297.58 98.16,296.61 98.35,295.25"/>
    </edge>
    <edge id=":node_01x03_10" function="internal">
        <lane id=":node_01x03_10_0" index="0" disallow="tram rail_urban rail rail_electric ship" speed="13.89" length="9.50" shape="95.25,298.35 104.75,298.35"/>
    </edge>
    <edge id=":node_01x03_11" function="internal">
        <lane id=":node_01x03_11_0" index="0" disallow="tram rail_urban rail rail_electric ship" speed="13.89" length="10.32" shape="95.25,298.35 98.05,298.75 100.05,299.95 101.25,301.95 101.65,304.75"/>
    </edge>
    <edge id=":node_01x04_0" function="internal">
        <lane id=":node_01x04_0_0" index="0" disallow="tram rail_urban rail rail_electric ship" speed="13.89" length="5.00" shape="98.35,404.75 98.16,403.40 97.58,402.43 96.61,401.85 95.25,401.65"/>
    </edge>
    <edge id=":node_01x04_1" function="internal">
        <lane id=":node_01x04_1_0" index="0" disallow="tram rail_urban rail rail_electric ship" speed="13.89" length="9.50" shape="98.35,404.75 98.35,395.25"/>
    </edge>
    <edge id=":node_01x04_2" function="internal">
        <lane id=":node_01x04_2_0" index="0" disallow="tram rail_urban rail rail_electric ship" speed="13.89" length="10.32" shape="98.35,404.75 98.75,401.95 99.95,399.95 101.95,398.75 104.75,398.35"/>
    </edge>
    <edge id=":node_01x04_3" function="internal">
        <lane id=":node_01x04_3_0" index="0" disallow="tram rail_urban rail rail_electric ship" speed="13.89" length="5.00" shape="104.75,401.65 103.40,401.85 102.43,402.43 101.85,403.40 101.65,404.75"/>
    </edge>
    <edge id=":node_01x04_4" function="internal">
        <lane id=":node_01x04_4_0" index="0" disallow="tram rail_urban rail rail_electric ship" speed="13.89" length="9.50" shape="104.75,401.65 95.25,401.65"/>
    </edge>
    <edge id=":node_01x04_5" function="internal">
        <lane id=":node_01x04_5_0" index="0" disallow="tram rail_urban rail rail_electric ship" speed="13.89" length="10.32" shape="104.75,401.65 101.95,401.25 99.95,400.05 98.75,398.05 98.35,395.25"/>
    </edge>
    <edge id=":node_01x04_6" function="internal">
        <lane id=":node_01x04_6_0" index="0" disallow="tram rail_urban rail rail_electric ship" speed="13.89" length="5.00" shape="101.65,395.25 101.85,396.61 102.43,397.58 103.40,398.16 104.75,398.35"/>
    </edge>
    <edge id=":node_01x04_7" function="internal">
        <lane id=":node_01x04_7_0" index="0" disallow="tram rail_urban rail rail_electric ship" speed="13.89" length="9.50" shape="101.65,395.25 101.65,404.75"/>
    </edge>
    <edge id=":node_01x04_8" function="internal">
        <lane id=":node_01x04_8_0" index="0" disallow="tram rail_urban rail rail_electric ship" speed="13.89" length="10.32" shape="101.65,395.25 101.25,398.05 100.05,400.05 98.05,401.25 95.25,401.65"/>
    </edge>
    <edge id=":node_01x04_9" function="internal">
        <lane id=":node_01x04_9_0" index="0" disallow="tram rail_urban rail rail_electric ship" speed="13.89" length="5.00" shape="95.25,398.35 96.61,398.16 97.58,397.58 98.16,396.61 98.35,395.25"/>
    </edge>
    <edge id=":node_01x04_10" function="internal">
        <lane id=":node_01x04_10_0" index="0" disallow="tram rail_urban rail rail_electric ship" speed="13.89" length="9.50" shape="95.25,398.35 104.75,398.35"/>
    </edge>
    <edge id=":node_01x04_11" function="internal">
        <lane id=":node_01x04_11_0" index="0" disallow="tram rail_urban rail rail_electric ship" speed="13.89" length="10.32" shape="95.25,398.35 98.05,398.75 100.05,399.95 101.25,401.95 101.65,404.75"/>
    </edge>
    <edge id=":node_01x05_0" function="internal">
        <lane id=":node_01x05_0_0" index="0" disallow="tram rail_urban rail rail_electric ship" speed="13.89" length="5.00" shape="98.35,504.75 98.16,503.40 97.58,502.43 96.61,501.85 95.25,501.65"/>
    </edge>
    <edge id=":node_01x05_1" function="internal">
        <lane id=":node_01x05_1_0" index="0" disallow="tram rail_urban rail rail_electric ship" speed="13.89" length="9.50" shape="98.35,504.75 98.35,495.25"/>
    </edge>
    <edge id=":node_01x05_2" function="internal">
        <lane id=":node_01x05_2_0" index="0" disallow="tram rail_urban rail rail_electric ship" speed="13.89" length="10.32" shape="98.35,504.75 98.75,501.95 99.95,499.95 101.95,498.75 104.75,498.35"/>
    </edge>
    <edge id=":node_01x05_3" function="internal">
        <lane id=":node_01x05_3_0" index="0" disallow="tram rail_urban rail rail_electric ship" speed="13.89" length="5.00" shape="104.75,501.65 103.40,501.85 102.43,502.43 101.85,503.40 101.65,504.75"/>
    </edge>
    <edge id=":node_01x05_4" function="internal">
        <lane id=":node_01x05_4_0" index="0" disallow="tram rail_urban rail rail_electric ship" speed="13.89" length="9.50" shape="104.75,501.65 95.25,501.65"/>
    </edge>
    <edge id=":node_01x05_5" function="internal">
        <lane id=":node_01x05_5_0" index="0" disallow="tram rail_urban rail rail_electric ship" speed="13.89" length="10.32" shape="104.75,501.65 101.95,501.25 99.95,500.05 98.75,498.05 98.35,495.25"/>
    </edge>
    <edge id=":node_01x05_6" function="internal">
        <lane id=":node_01x05_6_0" index="0" disallow="tram rail_urban rail rail_electric ship" speed="13.89" length="5.00" shape="101.65,495.25 101.85,496.61 102.43,497.58 103.40,498.16 104.75,498.35"/>
    </edge>
    <edge id=":node_01x05_7" function="internal">
        <lane id=":node_01x05_7_0" index="0" disallow="tram rail_urban rail rail_electric ship" speed="13.89" length="9.50" shape="101.65,495.25 101.65,504.75"/>
    </edge>
    <edge id=":node_01x05_8" function="internal">
        <lane id=":node_01x05_8_0" index="0" disallow="tram rail_urban rail rail_electric ship" speed="13.89" length="10.32" shape="101.65,495.25 101.25,498.05 100.05,500.05 98.05,501.25 95.25,501.65"/>
    </edge>
    <edge id=":node_01x05_9" function="internal">
        <lane id=":node_01x05_9_0" index="0" disallow="tram rail_urban rail rail_electric ship" speed="13.89" length="5.00" shape="95.25,498.35 96.61,498.16 97.58,497.58 98.16,496.61 98.35,495.25"/>
    </edge>
    <edge id=":node_01x05_10" function="internal">
        <lane id=":node_01x05_10_0" index="0" disallow="tram rail_urban rail rail_electric ship" speed="13.89" length="9.50" shape="95.25,498.35 104.75,498.35"/>
    </edge>
    <edge id=":node_01x05_11" function="internal">
        <lane id=":node_01x05_11_0" index="0" disallow="tram rail_urban rail rail_electric ship" speed="13.89" length="10.32" shape="95.25,498.35 98.05,498.75 100.05,499.95 101.25,501.95 101.65,504.75"/>
    </edge>
    <edge id=":node_01x06_0" function="internal">
        <lane id=":node_01x06_0_0" index="0" disallow="tram rail_urban rail rail_electric ship" speed="13.89" length="5.00" shape="98.35,604.75 98.16,603.40 97.58,602.43 96.61,601.85 95.25,601.65"/>
    </edge>
    <edge id=":node_01x06_1" function="internal">
        <lane id=":node_01x06_1_0" index="0" disallow="tram rail_urban rail rail_electric ship" speed="13.89" length="9.50" shape="98.35,604.75 98.35,595.25"/>
    </edge>
    <edge id=":node_01x06_2" function="internal">
        <lane id=":node_01x06_2_0" index="0" disallow="tram rail_urban rail rail_electric ship" speed="13.89" length="10.32" shape="98.35,604.75 98.75,601.95 99.95,599.95 101.95,598.75 104.75,598.35"/>
    </edge>
    <edge id=":node_01x06_3" function="internal">
        <lane id=":node_01x06_3_0" index="0" disallow="tram rail_urban rail rail_electric ship" speed="13.89" length="5.00" shape="104.75,601.65 103.40,601.85 102.43,602.43 101.85,603.40 101.65,604.75"/>
    </edge>
    <edge id=":node_01x06_4" function="internal">
        <lane id=":node_01x06_4_0" index="0" disallow="tram rail_urban rail rail_electric ship" speed="13.89" length="9.50" shape="104.75,601.65 95.25,601.65"/>
    </edge>
    <edge id=":node_01x06_5" function="internal">
        <lane id=":node_01x06_5_0" index="0" disallow="tram rail_urban rail rail_electric ship" speed="13.89" length="10.32" shape="104.75,601.65 101.95,601.25 99.95,600.05 98.75,598.05 98.35,595.25"/>
    </edge>
    <edge id=":node_01x06_6" function="internal">
        <lane id=":node_01x06_6_0" index="0" disallow="tram rail_urban rail rail_electric ship" speed="13.89" length="5.00" shape="101.65,595.25 101.85,596.61 102.43,597.58 103.40,598.16 104.75,598.35"/>
    </edge>
    <edge id=":node_01x06_7" function="internal">
        <lane id=":node_01x06_7_0" index="0" disallow="tram rail_urban rail rail_electric ship" speed="13.89" length="9.50" shape="101.65,595.25 101.65,604.75"/>
    </edge>
    <edge id=":node_01x06_8" function="internal">
        <lane id=":node_01x06_8_0" index="0" disallow="tram rail_urban rail rail_electric ship" speed="13.89" length="10.32" shape="101.65,595.25 101.25,598.05 100.05,600.05 98.05,601.25 95.25,601.65"/>
    </edge>
    <edge id=":node_01x06_9" function="internal">
        <lane id=":node_01x06_9_0" index="0" disallow="tram rail_urban rail rail_electric ship" speed="13.89" length="5.00" shape="95.25,598.35 96.61,598.16 97.58,597.58 98.16,596.61 98.35,595.25"/>
    </edge>
    <edge id=":node_01x06_10" function="internal">
        <lane id=":node_01x06_10_0" index="0" disallow="tram rail_urban rail rail_electric ship" speed="13.89" length="9.50" shape="95.25,598.35 104.75,598.35"/>
    </edge>
    <edge id=":node_01x06_11" function="internal">
        <lane id=":node_01x06_11_0" index="0" disallow="tram rail_urban rail rail_electric ship" speed="13.89" length="10.32" shape="95.25,598.35 98.05,598.75 100.05,599.95 101.25,601.95 101.65,604.75"/>
    </edge>
    <edge id=":node_01x07_0" function="internal">
        <lane id=":node_01x07_0_0" index="0" disallow="tram rail_urban rail rail_electric ship" speed="13.89" length="5.00" shape="98.35,704.75 98.16,703.40 97.58,702.43 96.61,701.85 95.25,701.65"/>
    </edge>
    <edge id=":node_01x07_1" function="internal">
        <lane id=":node_01x07_1_0" index="0" disallow="tram rail_urban rail rail_electric ship" speed="13.89" length="9.50" shape="98.35,704.75 98.35,695.25"/>
    </edge>
    <edge id=":node_01x07_2" function="internal">
        <lane id=":node_01x07_2_0" index="0" disallow="tram rail_urban rail rail_electric ship" speed="13.89" length="10.32" shape="98.35,704.75 98.75,701.95 99.95,699.95 101.95,698.75 104.75,698.35"/>
    </edge>
    <edge id=":node_01x07_3" function="internal">
        <lane id=":node_01x07_3_0" index="0" disallow="tram rail_urban rail rail_electric ship" speed="13.89" length="5.00" shape="104.75,701.65 103.40,701.85 102.43,702.43 101.85,703.40 101.65,704.75"/>
    </edge>
    <edge id=":node_01x07_4" function="internal">
        <lane id=":node_01x07_4_0" index="0" disallow="tram rail_urban rail rail_electric ship" speed="13.89" length="9.50" shape="104.75,701.65 95.25,701.65"/>
    </edge>
    <edge id=":node_01x07_5" function="internal">
        <lane id=":node_01x07_5_0" index="0" disallow="tram rail_urban rail rail_electric ship" speed="13.89" length="10.32" shape="104.75,701.65 101.95,701.25 99.95,700.05 98.75,698.05 98.35,695.25"/>
    </edge>
    <edge id=":node_01x07_6" function="internal">
        <lane id=":node_01x07_6_0" index="0" disallow="tram rail_urban rail rail_electric ship" speed="13.89" length="5.00" shape="101.65,695.25 101.85,696.61 102.43,697.58 103.40,698.16 104.75,698.35"/>
    </edge>
    <edge id=":node_01x07_7" function="internal">
        <lane id=":node_01x07_7_0" index="0" disallow="tram rail_urban rail rail_electric ship" speed="13.89" length="9.50" shape="101.65,695.25 101.65,704.75"/>
    </edge>
    <edge id=":node_01x07_8" function="internal">
        <lane id=":node_01x07_8_0" index="0" disallow="tram rail_urban rail rail_electric ship" speed="13.89" length="10.32" shape="101.65,695.25 101.25,698.05 100.05,700.05 98.05,701.25 95.25,701.65"/>
    </edge>
    <edge id=":node_01x07_9" function="internal">
        <lane id=":node_01x07_9_0" index="0" disallow="tram rail_urban rail rail_electric ship" speed="13.89" length="5.00" shape="95.25,698.35 96.61,698.16 97.58,697.58 98.16,696.61 98.35,695.25"/>
    </edge>
    <edge id=":node_01x07_10" function="internal">
        <lane id=":node_01x07_10_0" index="0" disallow="tram rail_urban rail rail_electric ship" speed="13.89" length="9.50" shape="95.25,698.35 104.75,698.35"/>
    </edge>
    <edge id=":node_01x07_11" function="internal">
        <lane id=":node_01x07_11_0" index="0" disallow="tram rail_urban rail rail_electric ship" speed="13.89" length="10.32" shape="95.25,698.35 98.05,698.75 100.05,699.95 101.25,701.95 101.65,704.75"/>
    </edge>
    <edge id=":node_01x08_0" function="internal">
        <lane id=":node_01x08_0_0" index="0" disallow="tram rail_urban rail rail_electric ship" speed="13.89" length="5.00" shape="98.35,804.75 98.16,803.40 97.58,802.43 96.61,801.85 95.25,801.65"/>
    </edge>
    <edge id=":node_01x08_1" function="internal">
        <lane id=":node_01x08_1_0" index="0" disallow="tram rail_urban rail rail_electric ship" speed="13.89" length="9.50" shape="98.35,804.75 98.35,795.25"/>
    </edge>
    <edge id=":node_01x08_2" function="internal">
        <lane id=":node_01x08_2_0" index="0" disallow="tram rail_urban rail rail_electric ship" speed="13.89" length="10.32" shape="98.35,804.75 98.75,801.95 99.95,799.95 101.95,798.75 104.75,798.35"/>
    </edge>
    <edge id=":node_01x08_3" function="internal">
        <lane id=":node_01x08_3_0" index="0" disallow="tram rail_urban rail rail_electric ship" speed="13.89" length="5.00" shape="104.75,801.65 103.40,801.85 102.43,802.43 101.85,803.40 101.65,804.75"/>
    </edge>
    <edge id=":node_01x08_4" function="internal">
        <lane id=":node_01x08_4_0" index="0" disallow="tram rail_urban rail rail_electric ship" speed="13.89" length="9.50" shape="104.75,801.65 95.25,801.65"/>
    </edge>
    <edge id=":node_01x08_5" function="internal">
        <lane id=":node_01x08_5_0" index="0" disallow="tram rail_urban rail rail_electric ship" speed="13.89" length="10.32" shape="104.75,801.65 101.95,801.25 99.95,800.05 98.75,798.05 98.35,795.25"/>
    </edge>
    <edge id=":node_01x08_6" function="internal">
        <lane id=":node_01x08_6_0" index="0" disallow="tram rail_urban rail rail_electric ship" speed="13.89" length="5.00" shape="101.65,795.25 101.85,796.61 102.43,797.58 103.40,798.16 104.75,798.35"/>
    </edge>
    <edge id=":node_01x08_7" function="internal">
        <lane id=":node_01x08_7_0" index="0" disallow="tram rail_urban rail rail_electric ship" speed="13.89" length="9.50" shape="101.65,795.25 101.65,804.75"/>
    </edge>
    <edge id=":node_01x08_8" function="internal">
        <lane id=":node_01x08_8_0" index="0" disallow="tram rail_urban rail rail_electric ship" speed="13.89" length="10.32" shape="101.65,795.25 101.25,798.05 100.05,800.05 98.05,801.25 95.25,801.65"/>
    </edge>
    <edge id=":node_01x08_9" function="internal">
        <lane id=":node_01x08_9_0" index="0" disallow="tram rail_urban rail rail_electric ship" speed="13.89" length="5.00" shape="95.25,798.35 96.61,798.16 97.58,797.58 98.16,796.61 98.35,795.25"/>
    </edge>
    <edge id=":node_01x08_10" function="internal">
        <lane id=":node_01x08_10_0" index="0" disallow="tram rail_urban rail rail_electric ship" speed="13.89" length="9.50" shape="95.25,798.35 104.75,798.35"/>
    </edge>
    <edge id=":node_01x08_11" function="internal">
        <lane id=":node_01x08_11_0" index="0" disallow="tram rail_urban rail rail_electric ship" speed="13.89" length="10.32" shape="95.25,798.35 98.05,798.75 100.05,799.95 101.25,801.95 101.65,804.75"/>
    </edge>
    <edge id=":node_01x09_0" function="internal">
        <lane id=":node_01x09_0_0" index="0" disallow="tram rail_urban rail rail_electric ship" speed="13.89" length="5.00" shape="98.35,904.75 98.16,903.40 97.58,902.43 96.61,901.85 95.25,901.65"/>
    </edge>
    <edge id=":node_01x09_1" function="internal">
        <lane id=":node_01x09_1_0" index="0" disallow="tram rail_urban rail rail_electric ship" speed="13.89" length="9.50" shape="98.35,904.75 98.35,895.25"/>
    </edge>
    <edge id=":node_01x09_2" function="internal">
        <lane id=":node_01x09_2_0" index="0" disallow="tram rail_urban rail rail_electric ship" speed="13.89" length="10.32" shape="98.35,904.75 98.75,901.95 99.95,899.95 101.95,898.75 104.75,898.35"/>
    </edge>
    <edge id=":node_01x09_3" function="internal">
        <lane id=":node_01x09_3_0" index="0" disallow="tram rail_urban rail rail_electric ship" speed="13.89" length="5.00" shape="104.75,901.65 103.40,901.85 102.43,902.43 101.85,903.40 101.65,904.75"/>
    </edge>
    <edge id=":node_01x09_4" function="internal">
        <lane id=":node_01x09_4_0" index="0" disallow="tram rail_urban rail rail_electric ship" speed="13.89" length="9.50" shape="104.75,901.65 95.25,901.65"/>
    </edge>
    <edge id=":node_01x09_5" function="internal">
        <lane id=":node_01x09_5_0" index="0" disallow="tram rail_urban rail rail_electric ship" speed="13.89" length="10.32" shape="104.75,901.65 101.95,901.25 99.95,900.05 98.75,898.05 98.35,895.25"/>
    </edge>
    <edge id=":node_01x09_6" function="internal">
        <lane id=":node_01x09_6_0" index="0" disallow="tram rail_urban rail rail_electric ship" speed="13.89" length="5.00" shape="101.65,895.25 101.85,896.61 102.43,897.58 103.40,898.16 104.75,898.35"/>
    </edge>
    <edge id=":node_01x09_7" function="internal">
        <lane id=":node_01x09_7_0" index="0" disallow="tram rail_urban rail rail_electric ship" speed="13.89" length="9.50" shape="101.65,895.25 101.65,904.75"/>
    </edge>
    <edge id=":node_01x09_8" function="internal">
        <lane id=":node_01x09_8_0" index="0" disallow="tram rail_urban rail rail_electric ship" speed="13.89" length="10.32" shape="101.65,895.25 101.25,898.05 100.05,900.05 98.05,901.25 95.25,901.65"/>
    </edge>
    <edge id=":node_01x09_9" function="internal">
        <lane id=":node_01x09_9_0" index="0" disallow="tram rail_urban rail rail_electric ship" speed="13.89" length="5.00" shape="95.25,898.35 96.61,898.16 97.58,897.58 98.16,896.61 98.35,895.25"/>
    </edge>
    <edge id=":node_01x09_10" function="internal">
        <lane id=":node_01x09_10_0" index="0" disallow="tram rail_urban rail rail_electric ship" speed="13.89" length="9.50" shape="95.25,898.35 104.75,898.35"/>
    </edge>
    <edge id=":node_01x09_11" function="internal">
        <lane id=":node_01x09_11_0" index="0" disallow="tram rail_urban rail rail_electric ship" speed="13.89" length="10.32" shape="95.25,898.35 98.05,898.75 100.05,899.95 101.25,901.95 101.65,904.75"/>
    </edge>
    <edge id=":node_01x10_0" function="internal">
        <lane id=":node_01x10_0_0" index="0" disallow="tram rail_urban rail rail_electric ship" speed="13.89" length="5.00" shape="98.35,1004.75 98.16,1003.40 97.58,1002.43 96.61,1001.85 95.25,1001.65"/>
    </edge>
    <edge id=":node_01x10_1" function="internal">
        <lane id=":node_01x10_1_0" index="0" disallow="tram rail_urban rail rail_electric ship" speed="13.89" length="9.50" shape="98.35,1004.75 98.35,995.25"/>
    </edge>
    <edge id=":node_01x10_2" function="internal">
        <lane id=":node_01x10_2_0" index="0" disallow="tram rail_urban rail rail_electric ship" speed="13.89" length="10.32" shape="98.35,1004.75 98.75,1001.95 99.95,999.95 101.95,998.75 104.75,998.35"/>
    </edge>
    <edge id=":node_01x10_3" function="internal">
        <lane id=":node_01x10_3_0" index="0" disallow="tram rail_urban rail rail_electric ship" speed="13.89" length="5.00" shape="104.75,1001.65 103.40,1001.85 102.43,1002.43 101.85,1003.40 101.65,1004.75"/>
    </edge>
    <edge id=":node_01x10_4" function="internal">
        <lane id=":node_01x10_4_0" index="0" disallow="tram rail_urban rail rail_electric ship" speed="13.89" length="9.50" shape="104.75,1001.65 95.25,1001.65"/>
    </edge>
    <edge id=":node_01x10_5" function="internal">
        <lane id=":node_01x10_5_0" index="0" disallow="tram rail_urban rail rail_electric ship" speed="13.89" length="10.32" shape="104.75,1001.65 101.95,1001.25 99.95,1000.05 98.75,998.05 98.35,995.25"/>
    </edge>
    <edge id=":node_01x10_6" function="internal">
        <lane id=":node_01x10_6_0" index="0" disallow="tram rail_urban rail rail_electric ship" speed="13.89" length="5.00" shape="101.65,995.25 101.85,996.61 102.43,997.58 103.40,998.16 104.75,998.35"/>
    </edge>
    <edge id=":node_01x10_7" function="internal">
        <lane id=":node_01x10_7_0" index="0" disallow="tram rail_urban rail rail_electric ship" speed="13.89" length="9.50" shape="101.65,995.25 101.65,1004.75"/>
    </edge>
    <edge id=":node_01x10_8" function="internal">
        <lane id=":node_01x10_8_0" index="0" disallow="tram rail_urban rail rail_electric ship" speed="13.89" length="10.32" shape="101.65,995.25 101.25,998.05 100.05,1000.05 98.05,1001.25 95.25,1001.65"/>
    </edge>
    <edge id=":node_01x10_9" function="internal">
        <lane id=":node_01x10_9_0" index="0" disallow="tram rail_urban rail rail_electric ship" speed="13.89" length="5.00" shape="95.25,998.35 96.61,998.16 97.58,997.58 98.16,996.61 98.35,995.25"/>
    </edge>
    <edge id=":node_01x10_10" function="internal">
        <lane id=":node_01x10_10_0" index="0" disallow="tram rail_urban rail rail_electric ship" speed="13.89" length="9.50" shape="95.25,998.35 104.75,998.35"/>
    </edge>
    <edge id=":node_01x10_11" function="internal">
        <lane id=":node_01x10_11_0" index="0" disallow="tram rail_urban rail rail_electric ship" speed="13.89" length="10.32" shape="95.25,998.35 98.05,998.75 100.05,999.95 101.25,1001.95 101.65,1004.75"/>
    </edge>
    <edge id=":node_01x11_0" function="internal">
        <lane id=":node_01x11_0_0" index="0" disallow="tram rail_urban rail rail_electric ship" speed="13.89" length="5.00" shape="98.35,1104.75 98.16,1103.40 97.58,1102.43 96.61,1101.85 95.25,1101.65"/>
    </edge>
    <edge id=":node_01x11_1" function="internal">
        <lane id=":node_01x11_1_0" index="0" disallow="tram rail_urban rail rail_electric ship" speed="13.89" length="9.50" shape="98.35,1104.75 98.35,1095.25"/>
    </edge>
    <edge id=":node_01x11_2" function="internal">
        <lane id=":node_01x11_2_0" index="0" disallow="tram rail_urban rail rail_electric ship" speed="13.89" length="10.32" shape="98.35,1104.75 98.75,1101.95 99.95,1099.95 101.95,1098.75 104.75,1098.35"/>
    </edge>
    <edge id=":node_01x11_3" function="internal">
        <lane id=":node_01x11_3_0" index="0" disallow="tram rail_urban rail rail_electric ship" speed="13.89" length="5.00" shape="104.75,1101.65 103.40,1101.85 102.43,1102.43 101.85,1103.40 101.65,1104.75"/>
    </edge>
    <edge id=":node_01x11_4" function="internal">
        <lane id=":node_01x11_4_0" index="0" disallow="tram rail_urban rail rail_electric ship" speed="13.89" length="9.50" shape="104.75,1101.65 95.25,1101.65"/>
    </edge>
    <edge id=":node_01x11_5" function="internal">
        <lane id=":node_01x11_5_0" index="0" disallow="tram rail_urban rail rail_electric ship" speed="13.89" length="10.32" shape="104.75,1101.65 101.95,1101.25 99.95,1100.05 98.75,1098.05 98.35,1095.25"/>
    </edge>
    <edge id=":node_01x11_6" function="internal">
        <lane id=":node_01x11_6_0" index="0" disallow="tram rail_urban rail rail_electric ship" speed="13.89" length="5.00" shape="101.65,1095.25 101.85,1096.61 102.43,1097.58 103.40,1098.16 104.75,1098.35"/>
    </edge>
    <edge id=":node_01x11_7" function="internal">
        <lane id=":node_01x11_7_0" index="0" disallow="tram rail_urban rail rail_electric ship" speed="13.89" length="9.50" shape="101.65,1095.25 101.65,1104.75"/>
    </edge>
    <edge id=":node_01x11_8" function="internal">
        <lane id=":node_01x11_8_0" index="0" disallow="tram rail_urban rail rail_electric ship" speed="13.89" length="10.32" shape="101.65,1095.25 101.25,1098.05 100.05,1100.05 98.05,1101.25 95.25,1101.65"/>
    </edge>
    <edge id=":node_01x11_9" function="internal">
        <lane id=":node_01x11_9_0" index="0" disallow="tram rail_urban rail rail_electric ship" speed="13.89" length="5.00" shape="95.25,1098.35 96.61,1098.16 97.58,1097.58 98.16,1096.61 98.35,1095.25"/>
    </edge>
    <edge id=":node_01x11_10" function="internal">
        <lane id=":node_01x11_10_0" index="0" disallow="tram rail_urban rail rail_electric ship" speed="13.89" length="9.50" shape="95.25,1098.35 104.75,1098.35"/>
    </edge>
    <edge id=":node_01x11_11" function="internal">
        <lane id=":node_01x11_11_0" index="0" disallow="tram rail_urban rail rail_electric ship" speed="13.89" length="10.32" shape="95.25,1098.35 98.05,1098.75 100.05,1099.95 101.25,1101.95 101.65,1104.75"/>
    </edge>
    <edge id=":node_01x12_0" function="internal">
        <lane id=":node_01x12_0_0" index="0" disallow="tram rail_urban rail rail_electric ship" speed="13.89" length="5.00" shape="98.35,1204.75 98.16,1203.40 97.58,1202.43 96.61,1201.85 95.25,1201.65"/>
    </edge>
    <edge id=":node_01x12_1" function="internal">
        <lane id=":node_01x12_1_0" index="0" disallow="tram rail_urban rail rail_electric ship" speed="13.89" length="9.50" shape="98.35,1204.75 98.35,1195.25"/>
    </edge>
    <edge id=":node_01x12_2" function="internal">
        <lane id=":node_01x12_2_0" index="0" disallow="tram rail_urban rail rail_electric ship" speed="13.89" length="10.32" shape="98.35,1204.75 98.75,1201.95 99.95,1199.95 101.95,1198.75 104.75,1198.35"/>
    </edge>
    <edge id=":node_01x12_3" function="internal">
        <lane id=":node_01x12_3_0" index="0" disallow="tram rail_urban rail rail_electric ship" speed="13.89" length="5.00" shape="104.75,1201.65 103.40,1201.85 102.43,1202.43 101.85,1203.40 101.65,1204.75"/>
    </edge>
    <edge id=":node_01x12_4" function="internal">
        <lane id=":node_01x12_4_0" index="0" disallow="tram rail_urban rail rail_electric ship" speed="13.89" length="9.50" shape="104.75,1201.65 95.25,1201.65"/>
    </edge>
    <edge id=":node_01x12_5" function="internal">
        <lane id=":node_01x12_5_0" index="0" disallow="tram rail_urban rail rail_electric ship" speed="13.89" length="10.32" shape="104.75,1201.65 101.95,1201.25 99.95,1200.05 98.75,1198.05 98.35,1195.25"/>
    </edge>
    <edge id=":node_01x12_6" function="internal">
        <lane id=":node_01x12_6_0" index="0" disallow="tram rail_urban rail rail_electric ship" speed="13.89" length="5.00" shape="101.65,1195.25 101.85,1196.61 102.43,1197.58 103.40,1198.16 104.75,1198.35"/>
    </edge>
    <edge id=":node_01x12_7" function="internal">
        <lane id=":node_01x12_7_0" index="0" disallow="tram rail_urban rail rail_electric ship" speed="13.89" length="9.50" shape="101.65,1195.25 101.65,1204.75"/>
    </edge>
    <edge id=":node_01x12_8" function="internal">
        <lane id=":node_01x12_8_0" index="0" disallow="tram rail_urban rail rail_electric ship" speed="13.89" length="10.32" shape="101.65,1195.25 101.25,1198.05 100.05,1200.05 98.05,1201.25 95.25,1201.65"/>
    </edge>
    <edge id=":node_01x12_9" function="internal">
        <lane id=":node_01x12_9_0" index="0" disallow="tram rail_urban rail rail_electric ship" speed="13.89" length="5.00" shape="95.25,1198.35 96.61,1198.16 97.58,1197.58 98.16,1196.61 98.35,1195.25"/>
    </edge>
    <edge id=":node_01x12_10" function="internal">
        <lane id=":node_01x12_10_0" index="0" disallow="tram rail_urban rail rail_electric ship" speed="13.89" length="9.50" shape="95.25,1198.35 104.75,1198.35"/>
    </edge>
    <edge id=":node_01x12_11" function="internal">
        <lane id=":node_01x12_11_0" index="0" disallow="tram rail_urban rail rail_electric ship" speed="13.89" length="10.32" shape="95.25,1198.35 98.05,1198.75 100.05,1199.95 101.25,1201.95 101.65,1204.75"/>
    </edge>
    <edge id=":node_01x13_0" function="internal">
        <lane id=":node_01x13_0_0" index="0" disallow="tram rail_urban rail rail_electric ship" speed="13.89" length="5.00" shape="98.35,1304.75 98.16,1303.40 97.58,1302.43 96.61,1301.85 95.25,1301.65"/>
    </edge>
    <edge id=":node_01x13_1" function="internal">
        <lane id=":node_01x13_1_0" index="0" disallow="tram rail_urban rail rail_electric ship" speed="13.89" length="9.50" shape="98.35,1304.75 98.35,1295.25"/>
    </edge>
    <edge id=":node_01x13_2" function="internal">
        <lane id=":node_01x13_2_0" index="0" disallow="tram rail_urban rail rail_electric ship" speed="13.89" length="10.32" shape="98.35,1304.75 98.75,1301.95 99.95,1299.95 101.95,1298.75 104.75,1298.35"/>
    </edge>
    <edge id=":node_01x13_3" function="internal">
        <lane id=":node_01x13_3_0" index="0" disallow="tram rail_urban rail rail_electric ship" speed="13.89" length="5.00" shape="104.75,1301.65 103.40,1301.85 102.43,1302.43 101.85,1303.40 101.65,1304.75"/>
    </edge>
    <edge id=":node_01x13_4" function="internal">
        <lane id=":node_01x13_4_0" index="0" disallow="tram rail_urban rail rail_electric ship" speed="13.89" length="9.50" shape="104.75,1301.65 95.25,1301.65"/>
    </edge>
    <edge id=":node_01x13_5" function="internal">
        <lane id=":node_01x13_5_0" index="0" disallow="tram rail_urban rail rail_electric ship" speed="13.89" length="10.32" shape="104.75,1301.65 101.95,1301.25 99.95,1300.05 98.75,1298.05 98.35,1295.25"/>
    </edge>
    <edge id=":node_01x13_6" function="internal">
        <lane id=":node_01x13_6_0" index="0" disallow="tram rail_urban rail rail_electric ship" speed="13.89" length="5.00" shape="101.65,1295.25 101.85,1296.61 102.43,1297.58 103.40,1298.16 104.75,1298.35"/>
    </edge>
    <edge id=":node_01x13_7" function="internal">
        <lane id=":node_01x13_7_0" index="0" disallow="tram rail_urban rail rail_electric ship" speed="13.89" length="9.50" shape="101.65,1295.25 101.65,1304.75"/>
    </edge>
    <edge id=":node_01x13_8" function="internal">
        <lane id=":node_01x13_8_0" index="0" disallow="tram rail_urban rail rail_electric ship" speed="13.89" length="10.32" shape="101.65,1295.25 101.25,1298.05 100.05,1300.05 98.05,1301.25 95.25,1301.65"/>
    </edge>
    <edge id=":node_01x13_9" function="internal">
        <lane id=":node_01x13_9_0" index="0" disallow="tram rail_urban rail rail_electric ship" speed="13.89" length="5.00" shape="95.25,1298.35 96.61,1298.16 97.58,1297.58 98.16,1296.61 98.35,1295.25"/>
    </edge>
    <edge id=":node_01x13_10" function="internal">
        <lane id=":node_01x13_10_0" index="0" disallow="tram rail_urban rail rail_electric ship" speed="13.89" length="9.50" shape="95.25,1298.35 104.75,1298.35"/>
    </edge>
    <edge id=":node_01x13_11" function="internal">
        <lane id=":node_01x13_11_0" index="0" disallow="tram rail_urban rail rail_electric ship" speed="13.89" length="10.32" shape="95.25,1298.35 98.05,1298.75 100.05,1299.95 101.25,1301.95 101.65,1304.75"/>
    </edge>
    <edge id=":node_01x14_0" function="internal">
        <lane id=":node_01x14_0_0" index="0" disallow="tram rail_urban rail rail_electric ship" speed="13.89" length="5.00" shape="98.35,1404.75 98.16,1403.40 97.58,1402.43 96.61,1401.85 95.25,1401.65"/>
    </edge>
    <edge id=":node_01x14_1" function="internal">
        <lane id=":node_01x14_1_0" index="0" disallow="tram rail_urban rail rail_electric ship" speed="13.89" length="9.50" shape="98.35,1404.75 98.35,1395.25"/>
    </edge>
    <edge id=":node_01x14_2" function="internal">
        <lane id=":node_01x14_2_0" index="0" disallow="tram rail_urban rail rail_electric ship" speed="13.89" length="10.32" shape="98.35,1404.75 98.75,1401.95 99.95,1399.95 101.95,1398.75 104.75,1398.35"/>
    </edge>
    <edge id=":node_01x14_3" function="internal">
        <lane id=":node_01x14_3_0" index="0" disallow="tram rail_urban rail rail_electric ship" speed="13.89" length="5.00" shape="104.75,1401.65 103.40,1401.85 102.43,1402.43 101.85,1403.40 101.65,1404.75"/>
    </edge>
    <edge id=":node_01x14_4" function="internal">
        <lane id=":node_01x14_4_0" index="0" disallow="tram rail_urban rail rail_electric ship" speed="13.89" length="9.50" shape="104.75,1401.65 95.25,1401.65"/>
    </edge>
    <edge id=":node_01x14_5" function="internal">
        <lane id=":node_01x14_5_0" index="0" disallow="tram rail_urban rail rail_electric ship" speed="13.89" length="10.32" shape="104.75,1401.65 101.95,1401.25 99.95,1400.05 98.75,1398.05 98.35,1395.25"/>
    </edge>
    <edge id=":node_01x14_6" function="internal">
        <lane id=":node_01x14_6_0" index="0" disallow="tram rail_urban rail rail_electric ship" speed="13.89" length="5.00" shape="101.65,1395.25 101.85,1396.61 102.43,1397.58 103.40,1398.16 104.75,1398.35"/>
    </edge>
    <edge id=":node_01x14_7" function="internal">
        <lane id=":node_01x14_7_0" index="0" disallow="tram rail_urban rail rail_electric ship" speed="13.89" length="9.50" shape="101.65,1395.25 101.65,1404.75"/>
    </edge>
    <edge id=":node_01x14_8" function="internal">
        <lane id=":node_01x14_8_0" index="0" disallow="tram rail_urban rail rail_electric ship" speed="13.89" length="10.32" shape="101.65,1395.25 101.25,1398.05 100.05,1400.05 98.05,1401.25 95.25,1401.65"/>
    </edge>
    <edge id=":node_01x14_9" function="internal">
        <lane id=":node_01x14_9_0" index="0" disallow="tram rail_urban rail rail_electric ship" speed="13.89" length="5.00" shape="95.25,1398.35 96.61,1398.16 97.58,1397.58 98.16,1396.61 98.35,1395.25"/>
    </edge>
    <edge id=":node_01x14_10" function="internal">
        <lane id=":node_01x14_10_0" index="0" disallow="tram rail_urban rail rail_electric ship" speed="13.89" length="9.50" shape="95.25,1398.35 104.75,1398.35"/>
    </edge>
    <edge id=":node_01x14_11" function="internal">
        <lane id=":node_01x14_11_0" index="0" disallow="tram rail_urban rail rail_electric ship" speed="13.89" length="10.32" shape="95.25,1398.35 98.05,1398.75 100.05,1399.95 101.25,1401.95 101.65,1404.75"/>
    </edge>
    <edge id=":node_01x15_0" function="internal">
        <lane id=":node_01x15_0_0" index="0" disallow="tram rail_urban rail rail_electric ship" speed="13.89" length="5.00" shape="98.35,1504.75 98.16,1503.40 97.58,1502.43 96.61,1501.85 95.25,1501.65"/>
    </edge>
    <edge id=":node_01x15_1" function="internal">
        <lane id=":node_01x15_1_0" index="0" disallow="tram rail_urban rail rail_electric ship" speed="13.89" length="9.50" shape="98.35,1504.75 98.35,1495.25"/>
    </edge>
    <edge id=":node_01x15_2" function="internal">
        <lane id=":node_01x15_2_0" index="0" disallow="tram rail_urban rail rail_electric ship" speed="13.89" length="10.32" shape="98.35,1504.75 98.75,1501.95 99.95,1499.95 101.95,1498.75 104.75,1498.35"/>
    </edge>
    <edge id=":node_01x15_3" function="internal">
        <lane id=":node_01x15_3_0" index="0" disallow="tram rail_urban rail rail_electric ship" speed="13.89" length="5.00" shape="104.75,1501.65 103.40,1501.85 102.43,1502.43 101.85,1503.40 101.65,1504.75"/>
    </edge>
    <edge id=":node_01x15_4" function="internal">
        <lane id=":node_01x15_4_0" index="0" disallow="tram rail_urban rail rail_electric ship" speed="13.89" length="9.50" shape="104.75,1501.65 95.25,1501.65"/>
    </edge>
    <edge id=":node_01x15_5" function="internal">
        <lane id=":node_01x15_5_0" index="0" disallow="tram rail_urban rail rail_electric ship" speed="13.89" length="10.32" shape="104.75,1501.65 101.95,1501.25 99.95,1500.05 98.75,1498.05 98.35,1495.25"/>
    </edge>
    <edge id=":node_01x15_6" function="internal">
        <lane id=":node_01x15_6_0" index="0" disallow="tram rail_urban rail rail_electric ship" speed="13.89" length="5.00" shape="101.65,1495.25 101.85,1496.61 102.43,1497.58 103.40,1498.16 104.75,1498.35"/>
    </edge>
    <edge id=":node_01x15_7" function="internal">
        <lane id=":node_01x15_7_0" index="0" disallow="tram rail_urban rail rail_electric ship" speed="13.89" length="9.50" shape="101.65,1495.25 101.65,1504.75"/>
    </edge>
    <edge id=":node_01x15_8" function="internal">
        <lane id=":node_01x15_8_0" index="0" disallow="tram rail_urban rail rail_electric ship" speed="13.89" length="10.32" shape="101.65,1495.25 101.25,1498.05 100.05,1500.05 98.05,1501.25 95.25,1501.65"/>
    </edge>
    <edge id=":node_01x15_9" function="internal">
        <lane id=":node_01x15_9_0" index="0" disallow="tram rail_urban rail rail_electric ship" speed="13.89" length="5.00" shape="95.25,1498.35 96.61,1498.16 97.58,1497.58 98.16,1496.61 98.35,1495.25"/>
    </edge>
    <edge id=":node_01x15_10" function="internal">
        <lane id=":node_01x15_10_0" index="0" disallow="tram rail_urban rail rail_electric ship" speed="13.89" length="9.50" shape="95.25,1498.35 104.75,1498.35"/>
    </edge>
    <edge id=":node_01x15_11" function="internal">
        <lane id=":node_01x15_11_0" index="0" disallow="tram rail_urban rail rail_electric ship" speed="13.89" length="10.32" shape="95.25,1498.35 98.05,1498.75 100.05,1499.95 101.25,1501.95 101.65,1504.75"/>
    </edge>
    <edge id=":node_01x16_0" function="internal">
        <lane id=":node_01x16_0_0" index="0" disallow="tram rail_urban rail rail_electric ship" speed="13.89" length="5.00" shape="98.35,1604.75 98.16,1603.40 97.58,1602.43 96.61,1601.85 95.25,1601.65"/>
    </edge>
    <edge id=":node_01x16_1" function="internal">
        <lane id=":node_01x16_1_0" index="0" disallow="tram rail_urban rail rail_electric ship" speed="13.89" length="9.50" shape="98.35,1604.75 98.35,1595.25"/>
    </edge>
    <edge id=":node_01x16_2" function="internal">
        <lane id=":node_01x16_2_0" index="0" disallow="tram rail_urban rail rail_electric ship" speed="13.89" length="10.32" shape="98.35,1604.75 98.75,1601.95 99.95,1599.95 101.95,1598.75 104.75,1598.35"/>
    </edge>
    <edge id=":node_01x16_3" function="internal">
        <lane id=":node_01x16_3_0" index="0" disallow="tram rail_urban rail rail_electric ship" speed="13.89" length="5.00" shape="104.75,1601.65 103.40,1601.85 102.43,1602.43 101.85,1603.40 101.65,1604.75"/>
    </edge>
    <edge id=":node_01x16_4" function="internal">
        <lane id=":node_01x16_4_0" index="0" disallow="tram rail_urban rail rail_electric ship" speed="13.89" length="9.50" shape="104.75,1601.65 95.25,1601.65"/>
    </edge>
    <edge id=":node_01x16_5" function="internal">
        <lane id=":node_01x16_5_0" index="0" disallow="tram rail_urban rail rail_electric ship" speed="13.89" length="10.32" shape="104.75,1601.65 101.95,1601.25 99.95,1600.05 98.75,1598.05 98.35,1595.25"/>
    </edge>
    <edge id=":node_01x16_6" function="internal">
        <lane id=":node_01x16_6_0" index="0" disallow="tram rail_urban rail rail_electric ship" speed="13.89" length="5.00" shape="101.65,1595.25 101.85,1596.61 102.43,1597.58 103.40,1598.16 104.75,1598.35"/>
    </edge>
    <edge id=":node_01x16_7" function="internal">
        <lane id=":node_01x16_7_0" index="0" disallow="tram rail_urban rail rail_electric ship" speed="13.89" length="9.50" shape="101.65,1595.25 101.65,1604.75"/>
    </edge>
    <edge id=":node_01x16_8" function="internal">
        <lane id=":node_01x16_8_0" index="0" disallow="tram rail_urban rail rail_electric ship" speed="13.89" length="10.32" shape="101.65,1595.25 101.25,1598.05 100.05,1600.05 98.05,1601.25 95.25,1601.65"/>
    </edge>
    <edge id=":node_01x16_9" function="internal">
[...]
    <connection from=":node_19x13_5" to="xedge_19x25" fromLane="0" toLane="0" dir="s" state="M"/>
    <connection from=":node_19x13_6" to="yedge_13x38" fromLane="0" toLane="0" dir="s" state="M"/>
    <connection from=":node_19x13_7" to="xedge_19x26" fromLane="0" toLane="0" dir="s" state="M"/>
    <connection from=":node_19x13_8" to="yedge_13x37" fromLane="0" toLane="0" dir="s" state="M"/>
    <connection from=":node_19x13_9" to="xedge_19x25" fromLane="0" toLane="0" dir="s" state="M"/>
    <connection from=":node_19x13_10" to="yedge_13x38" fromLane="0" toLane="0" dir="s" state="M"/>
    <connection from=":node_19x13_11" to="xedge_19x26" fromLane="0" toLane="0" dir="s" state="M"/>
    <connection from=":node_19x14_0" to="yedge_14x37" fromLane="0" toLane="0" dir="s" state="M"/>
    <connection from=":node_19x14_1" to="xedge_19x27" fromLane="0" toLane="0" dir="s" state="M"/>
    <connection from=":node_19x14_2" to="yedge_14x38" fromLane="0" toLane="0" dir="s" state="M"/>
    <connection from=":node_19x14_3" to="xedge_19x28" fromLane="0" toLane="0" dir="s" state="M"/>
    <connection from=":node_19x14_4" to="yedge_14x37" fromLane="0" toLane="0" dir="s" state="M"/>
    <connection from=":node_19x14_5" to="xedge_19x27" fromLane="0" toLane="0" dir="s" state="M"/>
    <connection from=":node_19x14_6" to="yedge_14x38" fromLane="0" toLane="0" dir="s" state="M"/>
    <connection from=":node_19x14_7" to="xedge_19x28" fromLane="0" toLane="0" dir="s" state="M"/>
    <connection from=":node_19x14_8" to="yedge_14x37" fromLane="0" toLane="0" dir="s" state="M"/>
    <connection from=":node_19x14_9" to="xedge_19x27" fromLane="0" toLane="0" dir="s" state="M"/>
    <connection from=":node_19x14_10" to="yedge_14x38" fromLane="0" toLane="0" dir="s" state="M"/>
    <connection from=":node_19x14_11" to="xedge_19x28" fromLane="0" toLane="0" dir="s" state="M"/>
    <connection from=":node_19x15_0" to="yedge_15x37" fromLane="0" toLane="0" dir="s" state="M"/>
    <connection from=":node_19x15_1" to="xedge_19x29" fromLane="0" toLane="0" dir="s" state="M"/>
    <connection from=":node_19x15_2" to="yedge_15x38" fromLane="0" toLane="0" dir="s" state="M"/>
    <connection from=":node_19x15_3" to="xedge_19x30" fromLane="0" toLane="0" dir="s" state="M"/>
    <connection from=":node_19x15_4" to="yedge_15x37" fromLane="0" toLane="0" dir="s" state="M"/>
    <connection from=":node_19x15_5" to="xedge_19x29" fromLane="0" toLane="0" dir="s" state="M"/>
    <connection from=":node_19x15_6" to="yedge_15x38" fromLane="0" toLane="0" dir="s" state="M"/>
    <connection from=":node_19x15_7" to="xedge_19x30" fromLane="0" toLane="0" dir="s" state="M"/>
    <connection from=":node_19x15_8" to="yedge_15x37" fromLane="0" toLane="0" dir="s" state="M"/>
    <connection from=":node_19x15_9" to="xedge_19x29" fromLane="0" toLane="0" dir="s" state="M"/>
    <connection from=":node_19x15_10" to="yedge_15x38" fromLane="0" toLane="0" dir="s" state="M"/>
    <connection from=":node_19x15_11" to="xedge_19x30" fromLane="0" toLane="0" dir="s" state="M"/>
    <connection from=":node_19x16_0" to="yedge_16x37" fromLane="0" toLane="0" dir="s" state="M"/>
    <connection from=":node_19x16_1" to="xedge_19x31" fromLane="0" toLane="0" dir="s" state="M"/>
    <connection from=":node_19x16_2" to="yedge_16x38" fromLane="0" toLane="0" dir="s" state="M"/>
    <connection from=":node_19x16_3" to="xedge_19x32" fromLane="0" toLane="0" dir="s" state="M"/>
    <connection from=":node_19x16_4" to="yedge_16x37" fromLane="0" toLane="0" dir="s" state="M"/>
    <connection from=":node_19x16_5" to="xedge_19x31" fromLane="0" toLane="0" dir="s" state="M"/>
    <connection from=":node_19x16_6" to="yedge_16x38" fromLane="0" toLane="0" dir="s" state="M"/>
    <connection from=":node_19x16_7" to="xedge_19x32" fromLane="0" toLane="0" dir="s" state="M"/>
    <connection from=":node_19x16_8" to="yedge_16x37" fromLane="0" toLane="0" dir="s" state="M"/>
    <connection from=":node_19x16_9" to="xedge_19x31" fromLane="0" toLane="0" dir="s" state="M"/>
    <connection from=":node_19x16_10" to="yedge_16x38" fromLane="0" toLane="0" dir="s" state="M"/>
    <connection from=":node_19x16_11" to="xedge_19x32" fromLane="0" toLane="0" dir="s" state="M"/>
    <connection from=":node_19x17_0" to="yedge_17x37" fromLane="0" toLane="0" dir="s" state="M"/>
    <connection from=":node_19x17_1" to="xedge_19x33" fromLane="0" toLane="0" dir="s" state="M"/>
    <connection from=":node_19x17_2" to="yedge_17x38" fromLane="0" toLane="0" dir="s" state="M"/>
    <connection from=":node_19x17_3" to="xedge_19x34" fromLane="0" toLane="0" dir="s" state="M"/>
    <connection from=":node_19x17_4" to="yedge_17x37" fromLane="0" toLane="0" dir="s" state="M"/>
    <connection from=":node_19x17_5" to="xedge_19x33" fromLane="0" toLane="0" dir="s" state="M"/>
    <connection from=":node_19x17_6" to="yedge_17x38" fromLane="0" toLane="0" dir="s" state="M"/>
    <connection from=":node_19x17_7" to="xedge_19x34" fromLane="0" toLane="0" dir="s" state="M"/>
    <connection from=":node_19x17_8" to="yedge_17x37" fromLane="0" toLane="0" dir="s" state="M"/>
    <connection from=":node_19x17_9" to="xedge_19x33" fromLane="0" toLane="0" dir="s" state="M"/>
    <connection from=":node_19x17_10" to="yedge_17x38" fromLane="0" toLane="0" dir="s" state="M"/>
    <connection from=":node_19x17_11" to="xedge_19x34" fromLane="0" toLane="0" dir="s" state="M"/>
    <connection from=":node_19x18_0" to="yedge_18x37" fromLane="0" toLane="0" dir="s" state="M"/>
    <connection from=":node_19x18_1" to="xedge_19x35" fromLane="0" toLane="0" dir="s" state="M"/>
    <connection from=":node_19x18_2" to="yedge_18x38" fromLane="0" toLane="0" dir="s" state="M"/>
    <connection from=":node_19x18_3" to="xedge_19x36" fromLane="0" toLane="0" dir="s" state="M"/>
    <connection from=":node_19x18_4" to="yedge_18x37" fromLane="0" toLane="0" dir="s" state="M"/>
    <connection from=":node_19x18_5" to="xedge_19x35" fromLane="0" toLane="0" dir="s" state="M"/>
    <connection from=":node_19x18_6" to="yedge_18x38" fromLane="0" toLane="0" dir="s" state="M"/>
    <connection from=":node_19x18_7" to="xedge_19x36" fromLane="0" toLane="0" dir="s" state="M"/>
    <connection from=":node_19x18_8" to="yedge_18x37" fromLane="0" toLane="0" dir="s" state="M"/>
    <connection from=":node_19x18_9" to="xedge_19x35" fromLane="0" toLane="0" dir="s" state="M"/>
    <connection from=":node_19x18_10" to="yedge_18x38" fromLane="0" toLane="0" dir="s" state="M"/>
    <connection from=":node_19x18_11" to="xedge_19x36" fromLane="0" toLane="0" dir="s" state="M"/>
    <connection from=":node_19x19_0" to="yedge_19x37" fromLane="0" toLane="0" dir="s" state="M"/>
    <connection from=":node_19x19_1" to="xedge_19x37" fromLane="0" toLane="0" dir="s" state="M"/>
    <connection from=":node_19x19_2" to="yedge_19x38" fromLane="0" toLane="0" dir="s" state="M"/>
    <connection from=":node_19x19_3" to="xedge_19x38" fromLane="0" toLane="0" dir="s" state="M"/>
    <connection from=":node_19x19_4" to="yedge_19x37" fromLane="0" toLane="0" dir="s" state="M"/>
    <connection from=":node_19x19_5" to="xedge_19x37" fromLane="0" toLane="0" dir="s" state="M"/>
    <connection from=":node_19x19_6" to="yedge_19x38" fromLane="0" toLane="0" dir="s" state="M"/>
    <connection from=":node_19x19_7" to="xedge_19x38" fromLane="0" toLane="0" dir="s" state="M"/>
    <connection from=":node_19x19_8" to="yedge_19x37" fromLane="0" toLane="0" dir="s" state="M"/>
    <connection from=":node_19x19_9" to="xedge_19x37" fromLane="0" toLane="0" dir="s" state="M"/>
    <connection from=":node_19x19_10" to="yedge_19x38" fromLane="0" toLane="0" dir="s" state="M"/>
    <connection from=":node_19x19_11" to="xedge_19x38" fromLane="0" toLane="0" dir="s" state="M"/>
    <connection from=":node_19x20_0" to="yedge_20x37" fromLane="0" toLane="0" dir="s" state="M"/>
    <connection from=":node_19x20_1" to="xedge_19x39" fromLane="0" toLane="0" dir="s" state="M"/>
    <connection from=":node_19x20_2" to="yedge_20x38" fromLane="0" toLane="0" dir="s" state="M"/>
    <connection from=":node_19x20_3" to="yedge_20x37" fromLane="0" toLane="0" dir="s" state="M"/>
    <connection from=":node_19x20_4" to="xedge_19x39" fromLane="0" toLane="0" dir="s" state="M"/>
    <connection from=":node_19x20_5" to="yedge_20x38" fromLane="0" toLane="0" dir="s" state="M"/>
    <connection from=":node_20x00_0" to="yedge_00x39" fromLane="0" toLane="0" dir="s" state="M"/>
    <connection from=":node_20x00_1" to="xedge_20x00" fromLane="0" toLane="0" dir="s" state="M"/>
    <connection from=":node_20x01_0" to="yedge_01x39" fromLane="0" toLane="0" dir="s" state="M"/>
    <connection from=":node_20x01_1" to="xedge_20x01" fromLane="0" toLane="0" dir="s" state="M"/>
    <connection from=":node_20x01_2" to="xedge_20x02" fromLane="0" toLane="0" dir="s" state="M"/>
    <connection from=":node_20x01_3" to="yedge_01x39" fromLane="0" toLane="0" dir="s" state="M"/>
    <connection from=":node_20x01_4" to="xedge_20x01" fromLane="0" toLane="0" dir="s" state="M"/>
    <connection from=":node_20x01_5" to="xedge_20x02" fromLane="0" toLane="0" dir="s" state="M"/>
    <connection from=":node_20x02_0" to="yedge_02x39" fromLane="0" toLane="0" dir="s" state="M"/>
    <connection from=":node_20x02_1" to="xedge_20x03" fromLane="0" toLane="0" dir="s" state="M"/>
    <connection from=":node_20x02_2" to="xedge_20x04" fromLane="0" toLane="0" dir="s" state="M"/>
    <connection from=":node_20x02_3" to="yedge_02x39" fromLane="0" toLane="0" dir="s" state="M"/>
    <connection from=":node_20x02_4" to="xedge_20x03" fromLane="0" toLane="0" dir="s" state="M"/>
    <connection from=":node_20x02_5" to="xedge_20x04" fromLane="0" toLane="0" dir="s" state="M"/>
    <connection from=":node_20x03_0" to="yedge_03x39" fromLane="0" toLane="0" dir="s" state="M"/>
    <connection from=":node_20x03_1" to="xedge_20x05" fromLane="0" toLane="0" dir="s" state="M"/>
    <connection from=":node_20x03_2" to="xedge_20x06" fromLane="0" toLane="0" dir="s" state="M"/>
    <connection from=":node_20x03_3" to="yedge_03x39" fromLane="0" toLane="0" dir="s" state="M"/>
    <connection from=":node_20x03_4" to="xedge_20x05" fromLane="0" toLane="0" dir="s" state="M"/>
    <connection from=":node_20x03_5" to="xedge_20x06" fromLane="0" toLane="0" dir="s" state="M"/>
    <connection from=":node_20x04_0" to="yedge_04x39" fromLane="0" toLane="0" dir="s" state="M"/>
    <connection from=":node_20x04_1" to="xedge_20x07" fromLane="0" toLane="0" dir="s" state="M"/>
    <connection from=":node_20x04_2" to="xedge_20x08" fromLane="0" toLane="0" dir="s" state="M"/>
    <connection from=":node_20x04_3" to="yedge_04x39" fromLane="0" toLane="0" dir="s" state="M"/>
    <connection from=":node_20x04_4" to="xedge_20x07" fromLane="0" toLane="0" dir="s" state="M"/>
    <connection from=":node_20x04_5" to="xedge_20x08" fromLane="0" toLane="0" dir="s" state="M"/>
    <connection from=":node_20x05_0" to="yedge_05x39" fromLane="0" toLane="0" dir="s" state="M"/>
    <connection from=":node_20x05_1" to="xedge_20x09" fromLane="0" toLane="0" dir="s" state="M"/>
    <connection from=":node_20x05_2" to="xedge_20x10" fromLane="0" toLane="0" dir="s" state="M"/>
    <connection from=":node_20x05_3" to="yedge_05x39" fromLane="0" toLane="0" dir="s" state="M"/>
    <connection from=":node_20x05_4" to="xedge_20x09" fromLane="0" toLane="0" dir="s" state="M"/>
    <connection from=":node_20x05_5" to="xedge_20x10" fromLane="0" toLane="0" dir="s" state="M"/>
    <connection from=":node_20x06_0" to="yedge_06x39" fromLane="0" toLane="0" dir="s" state="M"/>
    <connection from=":node_20x06_1" to="xedge_20x11" fromLane="0" toLane="0" dir="s" state="M"/>
    <connection from=":node_20x06_2" to="xedge_20x12" fromLane="0" toLane="0" dir="s" state="M"/>
    <connection from=":node_20x06_3" to="yedge_06x39" fromLane="0" toLane="0" dir="s" state="M"/>
    <connection from=":node_20x06_4" to="xedge_20x11" fromLane="0" toLane="0" dir="s" state="M"/>
    <connection from=":node_20x06_5" to="xedge_20x12" fromLane="0" toLane="0" dir="s" state="M"/>
    <connection from=":node_20x07_0" to="yedge_07x39" fromLane="0" toLane="0" dir="s" state="M"/>
    <connection from=":node_20x07_1" to="xedge_20x13" fromLane="0" toLane="0" dir="s" state="M"/>
    <connection from=":node_20x07_2" to="xedge_20x14" fromLane="0" toLane="0" dir="s" state="M"/>
    <connection from=":node_20x07_3" to="yedge_07x39" fromLane="0" toLane="0" dir="s" state="M"/>
    <connection from=":node_20x07_4" to="xedge_20x13" fromLane="0" toLane="0" dir="s" state="M"/>
    <connection from=":node_20x07_5" to="xedge_20x14" fromLane="0" toLane="0" dir="s" state="M"/>
    <connection from=":node_20x08_0" to="yedge_08x39" fromLane="0" toLane="0" dir="s" state="M"/>
    <connection from=":node_20x08_1" to="xedge_20x15" fromLane="0" toLane="0" dir="s" state="M"/>
    <connection from=":node_20x08_2" to="xedge_20x16" fromLane="0" toLane="0" dir="s" state="M"/>
    <connection from=":node_20x08_3" to="yedge_08x39" fromLane="0" toLane="0" dir="s" state="M"/>
    <connection from=":node_20x08_4" to="xedge_20x15" fromLane="0" toLane="0" dir="s" state="M"/>
    <connection from=":node_20x08_5" to="xedge_20x16" fromLane="0" toLane="0" dir="s" state="M"/>
    <connection from=":node_20x09_0" to="yedge_09x39" fromLane="0" toLane="0" dir="s" state="M"/>
    <connection from=":node_20x09_1" to="xedge_20x17" fromLane="0" toLane="0" dir="s" state="M"/>
    <connection from=":node_20x09_2" to="xedge_20x18" fromLane="0" toLane="0" dir="s" state="M"/>
    <connection from=":node_20x09_3" to="yedge_09x39" fromLane="0" toLane="0" dir="s" state="M"/>
    <connection from=":node_20x09_4" to="xedge_20x17" fromLane="0" toLane="0" dir="s" state="M"/>
    <connection from=":node_20x09_5" to="xedge_20x18" fromLane="0" toLane="0" dir="s" state="M"/>
    <connection from=":node_20x10_0" to="yedge_10x39" fromLane="0" toLane="0" dir="s" state="M"/>
    <connection from=":node_20x10_1" to="xedge_20x19" fromLane="0" toLane="0" dir="s" state="M"/>
    <connection from=":node_20x10_2" to="xedge_20x20" fromLane="0" toLane="0" dir="s" state="M"/>
    <connection from=":node_20x10_3" to="yedge_10x39" fromLane="0" toLane="0" dir="s" state="M"/>
    <connection from=":node_20x10_4" to="xedge_20x19" fromLane="0" toLane="0" dir="s" state="M"/>
    <connection from=":node_20x10_5" to="xedge_20x20" fromLane="0" toLane="0" dir="s" state="M"/>
    <connection from=":node_20x11_0" to="yedge_11x39" fromLane="0" toLane="0" dir="s" state="M"/>
    <connection from=":node_20x11_1" to="xedge_20x21" fromLane="0" toLane="0" dir="s" state="M"/>
    <connection from=":node_20x11_2" to="xedge_20x22" fromLane="0" toLane="0" dir="s" state="M"/>
    <connection from=":node_20x11_3" to="yedge_11x39" fromLane="0" toLane="0" dir="s" state="M"/>
    <connection from=":node_20x11_4" to="xedge_20x21" fromLane="0" toLane="0" dir="s" state="M"/>
    <connection from=":node_20x11_5" to="xedge_20x22" fromLane="0" toLane="0" dir="s" state="M"/>
    <connection from=":node_20x12_0" to="yedge_12x39" fromLane="0" toLane="0" dir="s" state="M"/>
    <connection from=":node_20x12_1" to="xedge_20x23" fromLane="0" toLane="0" dir="s" state="M"/>
    <connection from=":node_20x12_2" to="xedge_20x24" fromLane="0" toLane="0" dir="s" state="M"/>
    <connection from=":node_20x12_3" to="yedge_12x39" fromLane="0" toLane="0" dir="s" state="M"/>
    <connection from=":node_20x12_4" to="xedge_20x23" fromLane="0" toLane="0" dir="s" state="M"/>
    <connection from=":node_20x12_5" to="xedge_20x24" fromLane="0" toLane="0" dir="s" state="M"/>
    <connection from=":node_20x13_0" to="yedge_13x39" fromLane="0" toLane="0" dir="s" state="M"/>
    <connection from=":node_20x13_1" to="xedge_20x25" fromLane="0" toLane="0" dir="s" state="M"/>
    <connection from=":node_20x13_2" to="xedge_20x26" fromLane="0" toLane="0" dir="s" state="M"/>
    <connection from=":node_20x13_3" to="yedge_13x39" fromLane="0" toLane="0" dir="s" state="M"/>
    <connection from=":node_20x13_4" to="xedge_20x25" fromLane="0" toLane="0" dir="s" state="M"/>
    <connection from=":node_20x13_5" to="xedge_20x26" fromLane="0" toLane="0" dir="s" state="M"/>
    <connection from=":node_20x14_0" to="yedge_14x39" fromLane="0" toLane="0" dir="s" state="M"/>
    <connection from=":node_20x14_1" to="xedge_20x27" fromLane="0" toLane="0" dir="s" state="M"/>
    <connection from=":node_20x14_2" to="xedge_20x28" fromLane="0" toLane="0" dir="s" state="M"/>
    <connection from=":node_20x14_3" to="yedge_14x39" fromLane="0" toLane="0" dir="s" state="M"/>
    <connection from=":node_20x14_4" to="xedge_20x27" fromLane="0" toLane="0" dir="s" state="M"/>
    <connection from=":node_20x14_5" to="xedge_20x28" fromLane="0" toLane="0" dir="s" state="M"/>
    <connection from=":node_20x15_0" to="yedge_15x39" fromLane="0" toLane="0" dir="s" state="M"/>
    <connection from=":node_20x15_1" to="xedge_20x29" fromLane="0" toLane="0" dir="s" state="M"/>
    <connection from=":node_20x15_2" to="xedge_20x30" fromLane="0" toLane="0" dir="s" state="M"/>
    <connection from=":node_20x15_3" to="yedge_15x39" fromLane="0" toLane="0" dir="s" state="M"/>
    <connection from=":node_20x15_4" to="xedge_20x29" fromLane="0" toLane="0" dir="s" state="M"/>
    <connection from=":node_20x15_5" to="xedge_20x30" fromLane="0" toLane="0" dir="s" state="M"/>
    <connection from=":node_20x16_0" to="yedge_16x39" fromLane="0" toLane="0" dir="s" state="M"/>
    <connection from=":node_20x16_1" to="xedge_20x31" fromLane="0" toLane="0" dir="s" state="M"/>
    <connection from=":node_20x16_2" to="xedge_20x32" fromLane="0" toLane="0" dir="s" state="M"/>
    <connection from=":node_20x16_3" to="yedge_16x39" fromLane="0" toLane="0" dir="s" state="M"/>
    <connection from=":node_20x16_4" to="xedge_20x31" fromLane="0" toLane="0" dir="s" state="M"/>
    <connection from=":node_20x16_5" to="xedge_20x32" fromLane="0" toLane="0" dir="s" state="M"/>
    <connection from=":node_20x17_0" to="yedge_17x39" fromLane="0" toLane="0" dir="s" state="M"/>
    <connection from=":node_20x17_1" to="xedge_20x33" fromLane="0" toLane="0" dir="s" state="M"/>
    <connection from=":node_20x17_2" to="xedge_20x34" fromLane="0" toLane="0" dir="s" state="M"/>
    <connection from=":node_20x17_3" to="yedge_17x39" fromLane="0" toLane="0" dir="s" state="M"/>
    <connection from=":node_20x17_4" to="xedge_20x33" fromLane="0" toLane="0" dir="s" state="M"/>
    <connection from=":node_20x17_5" to="xedge_20x34" fromLane="0" toLane="0" dir="s" state="M"/>
    <connection from=":node_20x18_0" to="yedge_18x39" fromLane="0" toLane="0" dir="s" state="M"/>
    <connection from=":node_20x18_1" to="xedge_20x35" fromLane="0" toLane="0" dir="s" state="M"/>
    <connection from=":node_20x18_2" to="xedge_20x36" fromLane="0" toLane="0" dir="s" state="M"/>
    <connection from=":node_20x18_3" to="yedge_18x39" fromLane="0" toLane="0" dir="s" state="M"/>
    <connection from=":node_20x18_4" to="xedge_20x35" fromLane="0" toLane="0" dir="s" state="M"/>
    <connection from=":node_20x18_5" to="xedge_20x36" fromLane="0" toLane="0" dir="s" state="M"/>
    <connection from=":node_20x19_0" to="yedge_19x39" fromLane="0" toLane="0" dir="s" state="M"/>
    <connection from=":node_20x19_1" to="xedge_20x37" fromLane="0" toLane="0" dir="s" state="M"/>
    <connection from=":node_20x19_2" to="xedge_20x38" fromLane="0" toLane="0" dir="s" state="M"/>
    <connection from=":node_20x19_3" to="yedge_19x39" fromLane="0" toLane="0" dir="s" state="M"/>
    <connection from=":node_20x19_4" to="xedge_20x37" fromLane="0" toLane="0" dir="s" state="M"/>
    <connection from=":node_20x19_5" to="xedge_20x38" fromLane="0" toLane="0" dir="s" state="M"/>
    <connection from=":node_20x20_0" to="yedge_20x39" fromLane="0" toLane="0" dir="s" state="M"/>
    <connection from=":node_20x20_1" to="xedge_20x39" fromLane="0" toLane="0" dir="s" state="M"/>

</net>
